New Object = Circuit.279015_Barra_Slack
~ basekv = 34.5 pu = 1.029 angle = 0
New line.279015279015 phases = 3 bus1 = SourceBus bus2 = 64039585860867381MT.1.2.3 switch = y
New linecode.16512329H-1_linecode_media nphases=3 BaseFreq=60
~ r1=0.000975
~ x1=0.000347
~ c1=0
~ Normamps=175.0
~ Emergamps=245.0
New linecode.16512329H-3_linecode_media nphases=3 BaseFreq=60
~ r1=0.000975
~ x1=0.000347
~ c1=0
~ Normamps=175.0
~ Emergamps=245.0
New linecode.16512329H-3P_linecode_media nphases=3 BaseFreq=60
~ r1=0.000975
~ x1=0.000347
~ c1=0
~ Normamps=175.0
~ Emergamps=245.0
New linecode.16512384H-3P_linecode_media nphases=3 BaseFreq=60
~ r1=0.000306
~ x1=0.000289
~ c1=0
~ Normamps=350.0
~ Emergamps=490.0
New line.70318794_Chave_seccionadora_media_tensao phases = 3 bus1 = 279116422.1.2.3 bus2 = 27970318794.1.2.3 switch = F
New line.70318796_Chave_seccionadora_media_tensao phases = 3 bus1 = 279116422.1.2.3 bus2 = 27970318796.1.2.3 switch = A
New line.70318795_Chave_seccionadora_media_tensao phases = 3 bus1 = 27970318793.1.2.3 bus2 = 64039585860867381MT.1.2.3 switch = F
New line.70318793_Chave_seccionadora_media_tensao phases = 3 bus1 = 27970318794.1.2.3 bus2 = 27970318793.1.2.3 switch = F
New line.70455982_Chave_seccionadora_media_tensao phases = 3 bus1 = 64040695860866655MT.1.2.3 bus2 = 64040754860866515MT.1.2.3 switch = F
New line.70455989_Chave_seccionadora_media_tensao phases = 3 bus1 = 64575355861158726MT.1.2.3 bus2 = 64575503861158764MT.1.2.3 switch = F
New line.70455996_Chave_seccionadora_media_tensao phases = 3 bus1 = 65337136861305750MT.1.2.3 bus2 = 65337285861305782MT.1.2.3 switch = F
New line.34698893CT_Chave_seccionadora_media_tensao phases = 3 bus1 = 65695743861162888MT.1.2.3 bus2 = 65695743861162888ET.1.2.3 switch = F
New line.71426406_Chave_seccionadora_media_tensao phases = 3 bus1 = 65704880861203037MT.1.2.3 bus2 = 65705032861203022MT.1.2.3 switch = F
New line.64732551_Chave_seccionadora_media_tensao phases = 3 bus1 = 65723937861386514MT.1.2.3 bus2 = 65723943861386664MT.1.2.3 switch = F
New line.34778765CT_Chave_seccionadora_media_tensao phases = 3 bus1 = 65860678861453850MT.1.2.3 bus2 = 65860678861453850ET.1.2.3 switch = F
New line.64686543_Chave_seccionadora_media_tensao phases = 3 bus1 = 66073404861461383MT.1.2.3 bus2 = 66073342861461520MT.1.2.3 switch = F
New line.64686544_Chave_seccionadora_media_tensao phases = 3 bus1 = 66303636861513024MT.1.2.3 bus2 = 66303695861513162MT.1.2.3 switch = F
New line.64732549_Chave_seccionadora_media_tensao phases = 3 bus1 = 66401180861535732MT.1.2.3 bus2 = 66401303861535647MT.1.2.3 switch = F
New line.34654955CT_Chave_seccionadora_media_tensao phases = 3 bus1 = 66485413861571066MT.1.2.3 bus2 = 66485413861571066ET.1.2.3 switch = F
New line.34793070CT_Chave_seccionadora_media_tensao phases = 3 bus1 = 66486236861606587MT.1.2.3 bus2 = 66486236861606587ET.1.2.3 switch = F
New line.64689253_Chave_seccionadora_media_tensao phases = 3 bus1 = 66490298861550307MT.1.2.3 bus2 = 66490298861550457MT.1.2.3 switch = F
New line.34665333CT_Chave_seccionadora_media_tensao phases = 3 bus1 = 66516667861618246MT.1.2.3 bus2 = 66516667861618246ET.1.2.3 switch = F
New line.64696622_Chave_seccionadora_media_tensao phases = 3 bus1 = 66524293862030623MT.1.2.3 bus2 = 66524264862030770MT.1.2.3 switch = F
New line.34563120CT_Chave_seccionadora_media_tensao phases = 3 bus1 = 66546496861613570MT.1.2.3 bus2 = 66546496861613570ET.1.2.3 switch = F
New line.34614757CT_Chave_seccionadora_media_tensao phases = 3 bus1 = 66566025861620290MT.1.2.3 bus2 = 66566025861620290ET.1.2.3 switch = F
New line.64668022_Chave_seccionadora_media_tensao phases = 3 bus1 = 66567034861613887MT.1.2.3 bus2 = 66567011861614035MT.1.2.3 switch = F
New line.71542456CT_Chave_seccionadora_media_tensao phases = 3 bus1 = 66570640861815499MT.1.2.3 bus2 = 66570640861815499ET.1.2.3 switch = F
New line.59911530_Chave_seccionadora_media_tensao phases = 3 bus1 = 66615842862008453MT.1.2.3 bus2 = 66615987862008414MT.1.2.3 switch = F
New line.64666758_Chave_seccionadora_media_tensao phases = 3 bus1 = 66672880861997427MT.1.2.3 bus2 = 66672904861997575MT.1.2.3 switch = F
New line.64695236_Chave_seccionadora_media_tensao phases = 3 bus1 = 66846057862060678MT.1.2.3 bus2 = 66846050862060528MT.1.2.3 switch = F
New line.64666765_Chave_seccionadora_media_tensao phases = 3 bus1 = 67055399861588289MT.1.2.3 bus2 = 67055249861588281MT.1.2.3 switch = F
New line.34682866CT_Chave_seccionadora_media_tensao phases = 3 bus1 = 67115600861473048MT.1.2.3 bus2 = 67115600861473048ET.1.2.3 switch = F
New line.34769574CT_Chave_seccionadora_media_tensao phases = 3 bus1 = 67151513862462438MT.1.2.3 bus2 = 67151513862462438ET.1.2.3 switch = F
New line.71486703_Chave_seccionadora_media_tensao phases = 3 bus1 = 67158079862397633MT.1.2.3 bus2 = 67158192862397736MT.1.2.3 switch = F
New line.64729472_Chave_seccionadora_media_tensao phases = 3 bus1 = 67164653862274099MT.1.2.3 bus2 = 67164802862274082MT.1.2.3 switch = F
New line.64677560_Chave_seccionadora_media_tensao phases = 3 bus1 = 67164865862292019MT.1.2.3 bus2 = 67164717862291996MT.1.2.3 switch = F
New line.59911194_Chave_seccionadora_media_tensao phases = 3 bus1 = 67165611861405795MT.1.2.3 bus2 = 67165754861405749MT.1.2.3 switch = F
New line.71486710_Chave_seccionadora_media_tensao phases = 3 bus1 = 67257066862454786MT.1.2.3 bus2 = 67257074862454938MT.1.2.3 switch = F
New line.34736295CT_Chave_seccionadora_media_tensao phases = 3 bus1 = 67346321861675245MT.1.2.3 bus2 = 67346321861675245ET.1.2.3 switch = F
New line.34755120CT_Chave_seccionadora_media_tensao phases = 3 bus1 = 67413678861279319MT.1.2.3 bus2 = 67413678861279319ET.1.2.3 switch = F
New line.71551707_Chave_seccionadora_media_tensao phases = 3 bus1 = 68231370862226774MT.1.2.3 bus2 = 68231515862226727MT.1.2.3 switch = F
New Load.nome_20723ce3d9304b5d4bef12478fe6144b52dad0ff5c9c184df2a9fc9a97e7c133_curva_diaria_MT-Tipo2_du_0.8_0.8_0.8_0.8_0.8_0.8_0.8_0.8_0.7_0.7_0.7_0.7_0.7_0.7_0.7_0.7_0.7_0.7_0.7_0.7_0.7_0.7_0.7_0.7_0.7_0.7_0.6_0.6_0.7_0.7_0.7_0.7_0.7_0.7_0.7_0.8_0.8_0.8_0.8_0.9_0.9_0.9_0.9_0.9_0.9_1.0_1.0_1.0_1.0_1.0_1.0_1.0_1.0_1.0_1.0_1.0_1.0_1.0_1.0_1.0_1.0_1.0_1.0_1.0_1.0_0.9_0.9_0.9_0.9_0.9_0.9_0.9_0.9_0.9_0.9_0.9_0.9_0.9_0.9_0.9_0.8_0.9_0.8_0.8_0.8_0.8_0.8_0.8_0.8_0.8_0.8_0.7_0.7_0.7_0.7_0.7_sa_0.6_0.6_0.6_0.6_0.6_0.6_0.6_0.6_0.6_0.6_0.6_0.6_0.5_0.6_0.5_0.5_0.5_0.5_0.5_0.5_0.5_0.5_0.5_0.5_0.5_0.5_0.5_0.6_0.6_0.7_0.7_0.7_0.7_0.7_0.8_0.8_0.9_0.8_0.8_0.9_0.9_0.9_1.0_1.0_1.0_0.9_0.9_1.0_1.0_0.9_0.9_0.9_0.9_1.0_1.0_1.0_0.9_1.0_1.0_1.0_1.0_1.0_1.0_1.0_1.0_1.0_1.0_1.0_1.0_1.0_0.9_0.9_0.9_0.9_0.9_0.9_0.9_0.9_0.8_0.8_0.8_0.8_0.8_0.8_0.8_0.8_0.8_0.8_0.8_0.8_0.7_0.7_0.7_0.6_0.6_0.6_do_0.5_0.5_0.5_0.5_0.5_0.5_0.5_0.5_0.5_0.5_0.5_0.5_0.5_0.5_0.5_0.5_0.4_0.5_0.5_0.5_0.5_0.5_0.5_0.5_0.5_0.5_0.5_0.5_0.6_0.6_0.6_0.7_0.7_0.7_0.8_0.8_0.8_0.8_0.9_0.9_0.9_0.9_1.0_1.0_1.0_1.0_1.0_0.9_0.9_0.9_0.9_0.9_0.9_1.0_1.0_1.0_1.0_1.0_1.0_1.0_1.0_0.9_0.9_0.9_0.9_0.9_0.9_0.9_0.9_0.8_0.7_0.6_0.6_0.6_0.6_0.5_0.5_0.5_0.5_0.5_0.5_0.5_0.6_0.6_0.6_0.6_0.6_0.6_0.6_0.6_0.6_0.6_0.6_0.6_0.5_0.5_curva_anual_0.0_0.0_0.0_0.0_0.0_0.0_0.0_0.0_9.21_17.61_50.48_31.52_carga_media Bus1=66516667861618246MT.1.2.3 Phases=3
~ Conn=wye Model=1 Kv=34.5 Kw=1 pf=0.92
New Load.nome_30c4f3071e3ecf76502baea4f0d1634f5fd3718a92e2b3efcde051b22716c631_curva_diaria_MT-Tipo1_du_1.0_1.0_1.0_1.0_1.0_1.0_1.0_1.0_1.0_1.0_1.0_1.0_1.0_1.0_1.0_1.0_1.0_1.0_1.0_1.0_1.0_1.0_1.0_1.0_0.9_0.9_0.9_0.9_0.9_0.9_0.9_0.9_0.9_0.9_0.9_0.9_0.9_0.9_0.9_0.9_0.9_0.9_0.9_0.9_0.9_0.9_0.9_0.9_0.9_0.9_0.9_0.9_0.9_0.9_0.9_0.9_0.9_0.9_0.9_0.9_0.9_0.9_0.9_0.9_0.9_0.9_0.9_0.9_0.9_0.9_0.9_0.9_0.9_0.9_0.9_0.9_0.9_0.9_0.9_0.9_0.9_0.9_0.9_0.9_0.9_0.9_0.9_0.9_0.9_0.9_0.9_0.9_0.9_0.9_0.9_0.9_sa_1.0_1.0_1.0_1.0_1.0_1.0_1.0_1.0_1.0_1.0_1.0_1.0_1.0_1.0_0.9_1.0_1.0_1.0_0.9_0.9_1.0_0.9_0.9_1.0_0.9_1.0_1.0_1.0_1.0_1.0_1.0_1.0_1.0_1.0_1.0_1.0_1.0_1.0_1.0_1.0_1.0_1.0_1.0_1.0_1.0_1.0_1.0_1.0_1.0_1.0_1.0_1.0_1.0_1.0_1.0_1.0_1.0_1.0_1.0_1.0_1.0_1.0_1.0_1.0_1.0_0.9_1.0_1.0_1.0_1.0_1.0_1.0_1.0_1.0_0.9_1.0_1.0_1.0_1.0_1.0_1.0_1.0_1.0_1.0_1.0_1.0_1.0_1.0_1.0_1.0_1.0_1.0_1.0_1.0_1.0_1.0_do_0.9_1.0_1.0_0.9_0.9_0.9_0.9_1.0_1.0_1.0_1.0_1.0_0.9_0.9_0.9_0.9_0.9_0.9_0.9_0.9_0.9_0.9_0.9_0.9_0.9_0.9_0.9_0.9_0.9_0.9_0.9_0.9_1.0_1.0_1.0_1.0_1.0_1.0_1.0_1.0_1.0_1.0_1.0_1.0_1.0_1.0_1.0_1.0_1.0_1.0_1.0_1.0_1.0_1.0_1.0_1.0_1.0_1.0_1.0_1.0_1.0_1.0_1.0_1.0_1.0_1.0_1.0_1.0_1.0_0.9_0.9_0.9_0.9_0.9_1.0_0.9_0.9_0.9_0.9_0.9_0.9_0.9_1.0_1.0_1.0_1.0_1.0_1.0_1.0_1.0_1.0_1.0_0.9_0.9_0.9_0.9_curva_anual_0.0_0.0_0.0_0.0_0.0_0.0_0.0_0.0_3.87_9.4_7.67_6.62_carga_media Bus1=65695743861162888ET.1.2.3 Phases=3
~ Conn=wye Model=1 Kv=34.5 Kw=1 pf=0.92
New Load.nome_3150aba61c62dcf6f0e16c413dc88a7ac4d200e663de7e8cad8b7a633940b9ee_curva_diaria_MT-Tipo2_du_0.8_0.8_0.8_0.8_0.8_0.8_0.8_0.8_0.7_0.7_0.7_0.7_0.7_0.7_0.7_0.7_0.7_0.7_0.7_0.7_0.7_0.7_0.7_0.7_0.7_0.7_0.6_0.6_0.7_0.7_0.7_0.7_0.7_0.7_0.7_0.8_0.8_0.8_0.8_0.9_0.9_0.9_0.9_0.9_0.9_1.0_1.0_1.0_1.0_1.0_1.0_1.0_1.0_1.0_1.0_1.0_1.0_1.0_1.0_1.0_1.0_1.0_1.0_1.0_1.0_0.9_0.9_0.9_0.9_0.9_0.9_0.9_0.9_0.9_0.9_0.9_0.9_0.9_0.9_0.9_0.8_0.9_0.8_0.8_0.8_0.8_0.8_0.8_0.8_0.8_0.8_0.7_0.7_0.7_0.7_0.7_sa_0.6_0.6_0.6_0.6_0.6_0.6_0.6_0.6_0.6_0.6_0.6_0.6_0.5_0.6_0.5_0.5_0.5_0.5_0.5_0.5_0.5_0.5_0.5_0.5_0.5_0.5_0.5_0.6_0.6_0.7_0.7_0.7_0.7_0.7_0.8_0.8_0.9_0.8_0.8_0.9_0.9_0.9_1.0_1.0_1.0_0.9_0.9_1.0_1.0_0.9_0.9_0.9_0.9_1.0_1.0_1.0_0.9_1.0_1.0_1.0_1.0_1.0_1.0_1.0_1.0_1.0_1.0_1.0_1.0_1.0_0.9_0.9_0.9_0.9_0.9_0.9_0.9_0.9_0.8_0.8_0.8_0.8_0.8_0.8_0.8_0.8_0.8_0.8_0.8_0.8_0.7_0.7_0.7_0.6_0.6_0.6_do_0.5_0.5_0.5_0.5_0.5_0.5_0.5_0.5_0.5_0.5_0.5_0.5_0.5_0.5_0.5_0.5_0.4_0.5_0.5_0.5_0.5_0.5_0.5_0.5_0.5_0.5_0.5_0.5_0.6_0.6_0.6_0.7_0.7_0.7_0.8_0.8_0.8_0.8_0.9_0.9_0.9_0.9_1.0_1.0_1.0_1.0_1.0_0.9_0.9_0.9_0.9_0.9_0.9_1.0_1.0_1.0_1.0_1.0_1.0_1.0_1.0_0.9_0.9_0.9_0.9_0.9_0.9_0.9_0.9_0.8_0.7_0.6_0.6_0.6_0.6_0.5_0.5_0.5_0.5_0.5_0.5_0.5_0.6_0.6_0.6_0.6_0.6_0.6_0.6_0.6_0.6_0.6_0.6_0.6_0.5_0.5_curva_anual_0.0_0.0_0.0_0.0_0.0_0.0_0.0_0.0_8.31_14.96_7.41_2.32_carga_media Bus1=65860678861453850MT.1.2.3 Phases=3
~ Conn=wye Model=1 Kv=34.5 Kw=1 pf=0.92
New Load.nome_331ee439816310ad3f817fdf3c7bcd8c48699bdcc34d59190b40cfb3a0aa7b5a_curva_diaria_MT-Tipo2_du_0.8_0.8_0.8_0.8_0.8_0.8_0.8_0.8_0.7_0.7_0.7_0.7_0.7_0.7_0.7_0.7_0.7_0.7_0.7_0.7_0.7_0.7_0.7_0.7_0.7_0.7_0.6_0.6_0.7_0.7_0.7_0.7_0.7_0.7_0.7_0.8_0.8_0.8_0.8_0.9_0.9_0.9_0.9_0.9_0.9_1.0_1.0_1.0_1.0_1.0_1.0_1.0_1.0_1.0_1.0_1.0_1.0_1.0_1.0_1.0_1.0_1.0_1.0_1.0_1.0_0.9_0.9_0.9_0.9_0.9_0.9_0.9_0.9_0.9_0.9_0.9_0.9_0.9_0.9_0.9_0.8_0.9_0.8_0.8_0.8_0.8_0.8_0.8_0.8_0.8_0.8_0.7_0.7_0.7_0.7_0.7_sa_0.6_0.6_0.6_0.6_0.6_0.6_0.6_0.6_0.6_0.6_0.6_0.6_0.5_0.6_0.5_0.5_0.5_0.5_0.5_0.5_0.5_0.5_0.5_0.5_0.5_0.5_0.5_0.6_0.6_0.7_0.7_0.7_0.7_0.7_0.8_0.8_0.9_0.8_0.8_0.9_0.9_0.9_1.0_1.0_1.0_0.9_0.9_1.0_1.0_0.9_0.9_0.9_0.9_1.0_1.0_1.0_0.9_1.0_1.0_1.0_1.0_1.0_1.0_1.0_1.0_1.0_1.0_1.0_1.0_1.0_0.9_0.9_0.9_0.9_0.9_0.9_0.9_0.9_0.8_0.8_0.8_0.8_0.8_0.8_0.8_0.8_0.8_0.8_0.8_0.8_0.7_0.7_0.7_0.6_0.6_0.6_do_0.5_0.5_0.5_0.5_0.5_0.5_0.5_0.5_0.5_0.5_0.5_0.5_0.5_0.5_0.5_0.5_0.4_0.5_0.5_0.5_0.5_0.5_0.5_0.5_0.5_0.5_0.5_0.5_0.6_0.6_0.6_0.7_0.7_0.7_0.8_0.8_0.8_0.8_0.9_0.9_0.9_0.9_1.0_1.0_1.0_1.0_1.0_0.9_0.9_0.9_0.9_0.9_0.9_1.0_1.0_1.0_1.0_1.0_1.0_1.0_1.0_0.9_0.9_0.9_0.9_0.9_0.9_0.9_0.9_0.8_0.7_0.6_0.6_0.6_0.6_0.5_0.5_0.5_0.5_0.5_0.5_0.5_0.6_0.6_0.6_0.6_0.6_0.6_0.6_0.6_0.6_0.6_0.6_0.6_0.5_0.5_curva_anual_0.0_0.0_0.0_0.0_0.0_0.0_0.0_0.0_30.25_9.07_33.69_30.91_carga_media Bus1=67173492862264202MT.1.2.3 Phases=3
~ Conn=wye Model=1 Kv=34.5 Kw=1 pf=0.92
New Load.nome_3940b8329c85313a0f3a2ed8ff190a8da5ad0685088f6a6c69e01e6e2059a974_curva_diaria_MT-Tipo1_du_1.0_1.0_1.0_1.0_1.0_1.0_1.0_1.0_1.0_1.0_1.0_1.0_1.0_1.0_1.0_1.0_1.0_1.0_1.0_1.0_1.0_1.0_1.0_1.0_0.9_0.9_0.9_0.9_0.9_0.9_0.9_0.9_0.9_0.9_0.9_0.9_0.9_0.9_0.9_0.9_0.9_0.9_0.9_0.9_0.9_0.9_0.9_0.9_0.9_0.9_0.9_0.9_0.9_0.9_0.9_0.9_0.9_0.9_0.9_0.9_0.9_0.9_0.9_0.9_0.9_0.9_0.9_0.9_0.9_0.9_0.9_0.9_0.9_0.9_0.9_0.9_0.9_0.9_0.9_0.9_0.9_0.9_0.9_0.9_0.9_0.9_0.9_0.9_0.9_0.9_0.9_0.9_0.9_0.9_0.9_0.9_sa_1.0_1.0_1.0_1.0_1.0_1.0_1.0_1.0_1.0_1.0_1.0_1.0_1.0_1.0_0.9_1.0_1.0_1.0_0.9_0.9_1.0_0.9_0.9_1.0_0.9_1.0_1.0_1.0_1.0_1.0_1.0_1.0_1.0_1.0_1.0_1.0_1.0_1.0_1.0_1.0_1.0_1.0_1.0_1.0_1.0_1.0_1.0_1.0_1.0_1.0_1.0_1.0_1.0_1.0_1.0_1.0_1.0_1.0_1.0_1.0_1.0_1.0_1.0_1.0_1.0_0.9_1.0_1.0_1.0_1.0_1.0_1.0_1.0_1.0_0.9_1.0_1.0_1.0_1.0_1.0_1.0_1.0_1.0_1.0_1.0_1.0_1.0_1.0_1.0_1.0_1.0_1.0_1.0_1.0_1.0_1.0_do_0.9_1.0_1.0_0.9_0.9_0.9_0.9_1.0_1.0_1.0_1.0_1.0_0.9_0.9_0.9_0.9_0.9_0.9_0.9_0.9_0.9_0.9_0.9_0.9_0.9_0.9_0.9_0.9_0.9_0.9_0.9_0.9_1.0_1.0_1.0_1.0_1.0_1.0_1.0_1.0_1.0_1.0_1.0_1.0_1.0_1.0_1.0_1.0_1.0_1.0_1.0_1.0_1.0_1.0_1.0_1.0_1.0_1.0_1.0_1.0_1.0_1.0_1.0_1.0_1.0_1.0_1.0_1.0_1.0_0.9_0.9_0.9_0.9_0.9_1.0_0.9_0.9_0.9_0.9_0.9_0.9_0.9_1.0_1.0_1.0_1.0_1.0_1.0_1.0_1.0_1.0_1.0_0.9_0.9_0.9_0.9_curva_anual_0.0_0.0_0.0_0.0_0.0_0.0_0.0_0.0_48.24_131.24_131.27_181.15_carga_media Bus1=66685188861982897MT.1.2.3 Phases=3
~ Conn=wye Model=1 Kv=34.5 Kw=1 pf=0.92
New Load.nome_5aea3d3a5962c9124eded4f6d2fc04fc7c8b22abe58a73d6981661a9e9f63d6c_curva_diaria_MT-Tipo10_du_0.8_0.8_0.8_0.8_0.8_0.8_0.8_0.8_0.8_0.8_0.8_0.8_0.8_0.8_0.8_0.8_0.8_0.8_0.8_0.8_0.8_0.8_0.8_0.8_0.8_0.8_0.8_0.8_0.8_0.9_0.8_0.9_0.9_0.9_0.9_0.9_0.9_0.9_0.9_0.9_0.9_0.8_0.9_0.9_0.9_0.9_0.9_0.9_0.9_0.9_0.9_0.9_0.9_0.9_0.9_0.9_0.9_0.9_0.9_0.9_0.9_1.0_0.9_1.0_1.0_0.9_0.9_0.9_1.0_1.0_1.0_1.0_1.0_0.9_0.9_0.9_0.9_0.9_0.9_0.9_0.9_0.9_0.9_0.9_0.9_0.9_0.9_0.8_0.8_0.8_0.8_0.8_0.8_0.8_0.8_0.8_sa_0.8_0.7_0.8_0.8_0.8_0.8_0.8_0.7_0.7_0.7_0.7_0.7_0.7_0.7_0.7_0.7_0.8_0.7_0.8_0.8_0.8_0.8_0.8_0.9_0.8_0.7_0.8_0.8_0.8_0.8_0.8_0.8_0.8_0.8_0.8_0.8_0.8_0.8_0.8_0.8_0.8_0.8_0.8_0.9_0.9_0.9_0.9_0.8_0.8_0.8_0.8_0.8_0.8_0.8_0.8_0.8_0.9_1.0_1.0_1.0_1.0_1.0_0.9_0.9_1.0_1.0_1.0_0.9_0.9_1.0_1.0_1.0_1.0_1.0_1.0_1.0_1.0_0.9_0.8_0.8_0.8_0.9_0.9_0.9_0.9_0.9_0.9_0.9_0.9_0.8_0.8_0.9_0.8_0.7_0.7_0.7_do_0.7_0.7_0.7_0.7_0.7_0.7_0.8_0.8_0.8_0.8_0.8_0.8_0.8_0.8_0.8_0.8_0.8_0.7_0.7_0.7_0.7_0.7_0.8_0.7_0.7_0.8_0.8_0.8_0.8_0.8_0.8_0.8_0.8_0.8_0.8_0.8_0.8_0.8_0.9_0.9_0.8_0.9_0.9_0.9_0.9_0.9_0.9_0.9_0.9_0.8_0.9_0.9_0.9_0.9_0.9_0.9_0.9_0.9_0.8_0.9_1.0_0.9_1.0_1.0_1.0_1.0_1.0_1.0_1.0_1.0_1.0_1.0_1.0_0.9_1.0_1.0_1.0_0.9_0.8_0.9_0.9_1.0_1.0_0.9_0.9_0.9_0.9_0.9_0.9_0.9_0.9_0.9_0.9_0.8_0.8_0.8_curva_anual_0.0_0.0_0.0_0.0_0.0_0.0_0.0_0.0_372.47_1163.63_1042.2_794.63_carga_media Bus1=66566025861620290MT.1.2.3 Phases=3
~ Conn=wye Model=1 Kv=34.5 Kw=1 pf=0.92
New linecode.16512329H-1_linecode_media nphases=3 BaseFreq=60
~ r1=0.000975
~ x1=0.000347
~ c1=0
~ Normamps=175.0
~ Emergamps=245.0
New linecode.16512329H-3_linecode_media nphases=3 BaseFreq=60
~ r1=0.000975
~ x1=0.000347
~ c1=0
~ Normamps=175.0
~ Emergamps=245.0
New linecode.16512329H-3P_linecode_media nphases=3 BaseFreq=60
~ r1=0.000975
~ x1=0.000347
~ c1=0
~ Normamps=175.0
~ Emergamps=245.0
New linecode.16512384H-3P_linecode_media nphases=3 BaseFreq=60
~ r1=0.000306
~ x1=0.000289
~ c1=0
~ Normamps=350.0
~ Emergamps=490.0
New Line.13477584_linha_media Phases = 3 Bus1 = 67084033862136208MT.1.2.3 Bus2 = 67088960862139656MT.1.2.3 Linecode = 16512329H-3_linecode_media Length = 60.137 units = m
New Line.13477583_linha_media Phases = 3 Bus1 = 66672904861997575MT.1.2.3 Bus2 = 66674397862006760MT.1.2.3 Linecode = 16512329H-3_linecode_media Length = 94.555 units = m
New Line.13477585_linha_media Phases = 3 Bus1 = 67088960862139656MT.1.2.3 Bus2 = 67095819862144829MT.1.2.3 Linecode = 16512329H-3_linecode_media Length = 85.91 units = m
New Line.13477582_linha_media Phases = 3 Bus1 = 66672121861993657MT.1.2.3 Bus2 = 66672880861997427MT.1.2.3 Linecode = 16512329H-3_linecode_media Length = 36.734 units = m
New Line.71426397_linha_media Phases = 3 Bus1 = 65705032861203022MT.1.2.3 Bus2 = 65707153861211831MT.1.2.3 Linecode = 16512329H-3P_linecode_media Length = 90.607 units = m
New Line.13646732_linha_media Phases = 3 Bus1 = 65869548861462069MT.1.2.3 Bus2 = 65866353861461472MT.1.2.3 Linecode = 16512329H-3P_linecode_media Length = 30.232 units = m
New Line.70451069_linha_media Phases = 3 Bus1 = 65471293861322874MT.1.2.3 Bus2 = 65478587861322684MT.1.2.3 Linecode = 16512384H-3P_linecode_media Length = 72.965 units = m
New Line.70450932_linha_media Phases = 3 Bus1 = 65699655861203552MT.1.2.3 Bus2 = 65704880861203037MT.1.2.3 Linecode = 16512384H-3P_linecode_media Length = 54.031 units = m
New Line.18203661_linha_media Phases = 3 Bus1 = 66572676861804030MT.1.2.3 Bus2 = 66570640861815499MT.1.2.3 Linecode = 16512329H-3_linecode_media Length = 116.483 units = m
New Line.18201911_linha_media Phases = 3 Bus1 = 66933501861847225MT.1.2.3 Bus2 = 66938548861836593MT.1.2.3 Linecode = 16512329H-1_linecode_media Length = 117.691 units = m
New Line.70448493_linha_media Phases = 3 Bus1 = 64026749860864989MT.1.2.3 Bus2 = 64022330860867884MT.1.2.3 Linecode = 16512384H-3P_linecode_media Length = 52.829 units = m
New Line.70448964_linha_media Phases = 3 Bus1 = 64129507861030980MT.1.2.3 Bus2 = 64126201861033037MT.1.2.3 Linecode = 16512384H-3P_linecode_media Length = 38.937 units = m
New Line.18209183_linha_media Phases = 3 Bus1 = 66846050862060528MT.1.2.3 Bus2 = 66845714862052937MT.1.2.3 Linecode = 16512329H-1_linecode_media Length = 77.486 units = m
New Line.18205922_linha_media Phases = 3 Bus1 = 66673422861987500MT.1.2.3 Bus2 = 66674698861980286MT.1.2.3 Linecode = 16512329H-3P_linecode_media Length = 73.26 units = m
New Line.71486580_linha_media Phases = 3 Bus1 = 67175360862412643MT.1.2.3 Bus2 = 67184298862420088MT.1.2.3 Linecode = 16512329H-3P_linecode_media Length = 116.325 units = m
New Line.13537295_linha_media Phases = 3 Bus1 = 65971162861439434MT.1.2.3 Bus2 = 65973105861429814MT.1.2.3 Linecode = 16512329H-3_linecode_media Length = 96.649 units = m
New Line.70451064_linha_media Phases = 3 Bus1 = 65434520861324109MT.1.2.3 Bus2 = 65443281861325739MT.1.2.3 Linecode = 16512384H-3P_linecode_media Length = 89.113 units = m
New Line.70448024_linha_media Phases = 3 Bus1 = 64039585860867381MT.1.2.3 Bus2 = 64040695860866655MT.1.2.3 Linecode = 16512384H-3P_linecode_media Length = 13.263 units = m
New Line.70451080_linha_media Phases = 3 Bus1 = 65551311861313620MT.1.2.3 Bus2 = 65555930861307410MT.1.2.3 Linecode = 16512384H-3P_linecode_media Length = 77.395 units = m
New Line.70448529_linha_media Phases = 3 Bus1 = 64115392860979682MT.1.2.3 Bus2 = 64117659860982515MT.1.2.3 Linecode = 16512384H-3P_linecode_media Length = 36.284 units = m
New Line.70448533_linha_media Phases = 3 Bus1 = 64122912860991971MT.1.2.3 Bus2 = 64126165860997104MT.1.2.3 Linecode = 16512384H-3P_linecode_media Length = 60.77 units = m
New Line.71551508_linha_media Phases = 3 Bus1 = 68186798862329481MT.1.2.3 Bus2 = 68197046862323047MT.1.2.3 Linecode = 16512329H-3P_linecode_media Length = 121.003 units = m
New Line.70449626_linha_media Phases = 3 Bus1 = 64164226861291547MT.1.2.3 Bus2 = 64170229861296498MT.1.2.3 Linecode = 16512384H-3P_linecode_media Length = 77.813 units = m
New Line.13420121_linha_media Phases = 3 Bus1 = 66490298861550457MT.1.2.3 Bus2 = 66490310861561223MT.1.2.3 Linecode = 16512329H-3P_linecode_media Length = 109.16 units = m
New Line.70449183_linha_media Phases = 3 Bus1 = 64083748861085704MT.1.2.3 Bus2 = 64085732861089105MT.1.2.3 Linecode = 16512384H-3P_linecode_media Length = 39.374 units = m
New Line.13543392_linha_media Phases = 3 Bus1 = 67212784861586057MT.1.2.3 Bus2 = 67224880861585904MT.1.2.3 Linecode = 16512329H-1_linecode_media Length = 120.97 units = m
New Line.18206938_linha_media Phases = 3 Bus1 = 66887899861945321MT.1.2.3 Bus2 = 66892728861934313MT.1.2.3 Linecode = 16512329H-1_linecode_media Length = 120.206 units = m
New Line.71486590_linha_media Phases = 3 Bus1 = 67257074862454938MT.1.2.3 Bus2 = 67257712862467147MT.1.2.3 Linecode = 16512329H-3P_linecode_media Length = 123.779 units = m
New Line.18206935_linha_media Phases = 3 Bus1 = 66872616861977675MT.1.2.3 Bus2 = 66877389861966805MT.1.2.3 Linecode = 16512329H-1_linecode_media Length = 118.717 units = m
New Line.18204337_linha_media Phases = 3 Bus1 = 67221621861396507MT.1.2.3 Bus2 = 67233936861395880MT.1.2.3 Linecode = 16512329H-1_linecode_media Length = 123.31 units = m
New Line.70448507_linha_media Phases = 3 Bus1 = 64066379860941079MT.1.2.3 Bus2 = 64067423860943001MT.1.2.3 Linecode = 16512384H-3P_linecode_media Length = 21.872 units = m
New Line.70451100_linha_media Phases = 3 Bus1 = 65664915861226273MT.1.2.3 Bus2 = 65671482861226961MT.1.2.3 Linecode = 16512384H-3P_linecode_media Length = 66.029 units = m
New Line.70449697_linha_media Phases = 3 Bus1 = 64654672861174479MT.1.2.3 Bus2 = 64662399861176052MT.1.2.3 Linecode = 16512384H-3P_linecode_media Length = 78.855 units = m
New Line.13420441_linha_media Phases = 3 Bus1 = 66546017861472191MT.1.2.3 Bus2 = 66550689861463999MT.1.2.3 Linecode = 16512329H-3_linecode_media Length = 92.105 units = m
New Line.18202081_linha_media Phases = 3 Bus1 = 67162165862352141MT.1.2.3 Bus2 = 67161407862362120MT.1.2.3 Linecode = 16512329H-3_linecode_media Length = 100.077 units = m
New Line.70449738_linha_media Phases = 3 Bus1 = 64976323861235652MT.1.2.3 Bus2 = 64984237861237270MT.1.2.3 Linecode = 16512384H-3P_linecode_media Length = 80.777 units = m
New Line.70451035_linha_media Phases = 3 Bus1 = 65212491861281710MT.1.2.3 Bus2 = 65220580861283170MT.1.2.3 Linecode = 16512384H-3P_linecode_media Length = 82.197 units = m
New Line.18202899_linha_media Phases = 3 Bus1 = 66953746862083598MT.1.2.3 Bus2 = 66964357862086019MT.1.2.3 Linecode = 16512329H-3_linecode_media Length = 108.837 units = m
New Line.70451067_linha_media Phases = 3 Bus1 = 65455669861323921MT.1.2.3 Bus2 = 65462931861323285MT.1.2.3 Linecode = 16512384H-3P_linecode_media Length = 72.898 units = m
New Line.13089153_linha_media Phases = 3 Bus1 = 66521120861618830MT.1.2.3 Bus2 = 66516667861618246MT.1.2.3 Linecode = 16512329H-3P_linecode_media Length = 42.265 units = m
New Line.18205815_linha_media Phases = 3 Bus1 = 66579750861767842MT.1.2.3 Bus2 = 66578476861777720MT.1.2.3 Linecode = 16512329H-3_linecode_media Length = 99.598 units = m
New Line.18203347_linha_media Phases = 3 Bus1 = 67046548862113257MT.1.2.3 Bus2 = 67056005862119629MT.1.2.3 Linecode = 16512329H-3_linecode_media Length = 114.034 units = m
New Line.13537526_linha_media Phases = 3 Bus1 = 66049208861436386MT.1.2.3 Bus2 = 66059794861438615MT.1.2.3 Linecode = 16512329H-3_linecode_media Length = 108.181 units = m
New Line.70456210_linha_media Phases = 3 Bus1 = 64140136861019548MT.1.2.3 Bus2 = 64142229861022559MT.1.2.3 Linecode = 16512384H-3P_linecode_media Length = 36.67 units = m
New Line.71486682_linha_media Phases = 3 Bus1 = 67258501862479017MT.1.2.3 Bus2 = 67259329862478961MT.1.2.3 Linecode = 16512329H-3P_linecode_media Length = 5.817 units = m
New Line.18211659_linha_media Phases = 3 Bus1 = 66984364861738495MT.1.2.3 Bus2 = 66989916861727787MT.1.2.3 Linecode = 16512329H-1_linecode_media Length = 120.618 units = m
New Line.70449708_linha_media Phases = 3 Bus1 = 64739749861190541MT.1.2.3 Bus2 = 64747778861192061MT.1.2.3 Linecode = 16512384H-3P_linecode_media Length = 81.716 units = m
New Line.18203473_linha_media Phases = 3 Bus1 = 66581373861685001MT.1.2.3 Bus2 = 66582117861699084MT.1.2.3 Linecode = 16512329H-3_linecode_media Length = 141.026 units = m
New Line.18202687_linha_media Phases = 3 Bus1 = 66544442861931182MT.1.2.3 Bus2 = 66541373861943854MT.1.2.3 Linecode = 16512329H-3_linecode_media Length = 130.383 units = m
New Line.18204475_linha_media Phases = 3 Bus1 = 66533299861982639MT.1.2.3 Bus2 = 66530770861994974MT.1.2.3 Linecode = 16512329H-3_linecode_media Length = 125.916 units = m
New Line.70449690_linha_media Phases = 3 Bus1 = 64598401861163827MT.1.2.3 Bus2 = 64606547861165267MT.1.2.3 Linecode = 16512384H-3P_linecode_media Length = 82.723 units = m
New Line.71551088_linha_media Phases = 3 Bus1 = 67462960862441734MT.1.2.3 Bus2 = 67468659862446352MT.1.2.3 Linecode = 16512329H-3P_linecode_media Length = 73.352 units = m
New Line.13420447_linha_media Phases = 3 Bus1 = 66637251861437339MT.1.2.3 Bus2 = 66640373861426358MT.1.2.3 Linecode = 16512329H-3_linecode_media Length = 114.162 units = m
New Line.18202695_linha_media Phases = 3 Bus1 = 67007250862096483MT.1.2.3 Bus2 = 67017944862099110MT.1.2.3 Linecode = 16512329H-3_linecode_media Length = 110.119 units = m
New Line.70451045_linha_media Phases = 3 Bus1 = 65291427861296994MT.1.2.3 Bus2 = 65299250861298479MT.1.2.3 Linecode = 16512384H-3P_linecode_media Length = 79.627 units = m
New Line.70451046_linha_media Phases = 3 Bus1 = 65299250861298479MT.1.2.3 Bus2 = 65306831861299975MT.1.2.3 Linecode = 16512384H-3P_linecode_media Length = 77.272 units = m
New Line.18202080_linha_media Phases = 3 Bus1 = 67162576862342053MT.1.2.3 Bus2 = 67162165862352141MT.1.2.3 Linecode = 16512329H-3_linecode_media Length = 100.964 units = m
New Line.14863407_linha_media Phases = 3 Bus1 = 66299233861510010MT.1.2.3 Bus2 = 66303636861513024MT.1.2.3 Linecode = 16512329H-3_linecode_media Length = 51.37 units = m
New Line.18203476_linha_media Phases = 3 Bus1 = 66580680861637477MT.1.2.3 Bus2 = 66581497861657531MT.1.2.3 Linecode = 16512329H-3_linecode_media Length = 200.706 units = m
New Line.70449712_linha_media Phases = 3 Bus1 = 64772631861197114MT.1.2.3 Bus2 = 64778655861198321MT.1.2.3 Linecode = 16512384H-3P_linecode_media Length = 61.437 units = m
New Line.70449653_linha_media Phases = 3 Bus1 = 64308413861164107MT.1.2.3 Bus2 = 64315367861160320MT.1.2.3 Linecode = 16512384H-3P_linecode_media Length = 79.183 units = m
New Line.70451106_linha_media Phases = 3 Bus1 = 65694441861204105MT.1.2.3 Bus2 = 65699655861203552MT.1.2.3 Linecode = 16512384H-3P_linecode_media Length = 52.432 units = m
New Line.70448513_linha_media Phases = 3 Bus1 = 64082462860933519MT.1.2.3 Bus2 = 64086183860933029MT.1.2.3 Linecode = 16512384H-3P_linecode_media Length = 37.531 units = m
New Line.71551339_linha_media Phases = 3 Bus1 = 67593650862532760MT.1.2.3 Bus2 = 67605174862533605MT.1.2.3 Linecode = 16512329H-3P_linecode_media Length = 115.549 units = m
New Line.70449711_linha_media Phases = 3 Bus1 = 64764487861195798MT.1.2.3 Bus2 = 64772631861197114MT.1.2.3 Linecode = 16512384H-3P_linecode_media Length = 82.496 units = m
New Line.18203654_linha_media Phases = 3 Bus1 = 67077447861499142MT.1.2.3 Bus2 = 67086420861491956MT.1.2.3 Linecode = 16512329H-1_linecode_media Length = 114.958 units = m
New Line.71551494_linha_media Phases = 3 Bus1 = 68020749862567479MT.1.2.3 Bus2 = 68056614862319109MT.1.2.3 Linecode = 16512329H-3P_linecode_media Length = 2509.461 units = m
New Line.13703528_linha_media Phases = 3 Bus1 = 66546239861611768MT.1.2.3 Bus2 = 66546496861613570MT.1.2.3 Linecode = 16512329H-3_linecode_media Length = 14.01 units = m
New Line.13725177_linha_media Phases = 3 Bus1 = 66217493861492774MT.1.2.3 Bus2 = 66228094861495140MT.1.2.3 Linecode = 16512329H-3_linecode_media Length = 108.618 units = m
New Line.18209184_linha_media Phases = 3 Bus1 = 66845714862052937MT.1.2.3 Bus2 = 66845744862044943MT.1.2.3 Linecode = 16512329H-1_linecode_media Length = 79.941 units = m
New Line.18203873_linha_media Phases = 3 Bus1 = 67167374862215608MT.1.2.3 Bus2 = 67166862862226756MT.1.2.3 Linecode = 16512329H-3_linecode_media Length = 111.598 units = m
New Line.70448975_linha_media Phases = 3 Bus1 = 64091287861054375MT.1.2.3 Bus2 = 64088830861055905MT.1.2.3 Linecode = 16512384H-3P_linecode_media Length = 28.944 units = m
New Line.70449636_linha_media Phases = 3 Bus1 = 64217048861235335MT.1.2.3 Bus2 = 64222504861230588MT.1.2.3 Linecode = 16512384H-3P_linecode_media Length = 72.32 units = m
New Line.70449625_linha_media Phases = 3 Bus1 = 64160892861286055MT.1.2.3 Bus2 = 64164226861291547MT.1.2.3 Linecode = 16512384H-3P_linecode_media Length = 64.248 units = m
New Line.71551340_linha_media Phases = 3 Bus1 = 67605174862533605MT.1.2.3 Bus2 = 67616664862534518MT.1.2.3 Linecode = 16512329H-3P_linecode_media Length = 115.262 units = m
New Line.18205357_linha_media Phases = 3 Bus1 = 67172661862271961MT.1.2.3 Bus2 = 67173100862266927MT.1.2.3 Linecode = 16512329H-3P_linecode_media Length = 47.941 units = m
New Line.70449682_linha_media Phases = 3 Bus1 = 64535797861151268MT.1.2.3 Bus2 = 64543708861152678MT.1.2.3 Linecode = 16512384H-3P_linecode_media Length = 80.357 units = m
New Line.70448517_linha_media Phases = 3 Bus1 = 64092318860941743MT.1.2.3 Bus2 = 64095099860947684MT.1.2.3 Linecode = 16512384H-3P_linecode_media Length = 65.597 units = m
New Line.18211426_linha_media Phases = 3 Bus1 = 67177266861402047MT.1.2.3 Bus2 = 67187805861398872MT.1.2.3 Linecode = 16512329H-1_linecode_media Length = 110.069 units = m
New Line.70451047_linha_media Phases = 3 Bus1 = 65306831861299975MT.1.2.3 Bus2 = 65313494861301214MT.1.2.3 Linecode = 16512384H-3P_linecode_media Length = 67.772 units = m
New Line.13543384_linha_media Phases = 3 Bus1 = 67188552861586381MT.1.2.3 Bus2 = 67200922861586142MT.1.2.3 Linecode = 16512329H-1_linecode_media Length = 123.723 units = m
New Line.13703529_linha_media Phases = 3 Bus1 = 66535856861610808MT.1.2.3 Bus2 = 66546239861611768MT.1.2.3 Linecode = 16512329H-3P_linecode_media Length = 104.273 units = m
New Line.70448535_linha_media Phases = 3 Bus1 = 64127704860999645MT.1.2.3 Bus2 = 64129252861002227MT.1.2.3 Linecode = 16512384H-3P_linecode_media Length = 30.105 units = m
New Line.70449588_linha_media Phases = 3 Bus1 = 64116165861141724MT.1.2.3 Bus2 = 64118086861145026MT.1.2.3 Linecode = 16512384H-3P_linecode_media Length = 38.201 units = m
New Line.13806447_linha_media Phases = 3 Bus1 = 65743686861390900MT.1.2.3 Bus2 = 65755431861393328MT.1.2.3 Linecode = 16512329H-3_linecode_media Length = 119.933 units = m
New Line.13806161_linha_media Phases = 3 Bus1 = 65702209861189710MT.1.2.3 Bus2 = 65699342861178836MT.1.2.3 Linecode = 16512329H-3P_linecode_media Length = 112.456 units = m
New Line.71387771_linha_media Phases = 3 Bus1 = 66567034861613887MT.1.2.3 Bus2 = 66580065861614478MT.1.2.3 Linecode = 16512329H-3_linecode_media Length = 128.712 units = m
New Line.13543674_linha_media Phases = 3 Bus1 = 67272916861586247MT.1.2.3 Bus2 = 67285023861586394MT.1.2.3 Linecode = 16512329H-1_linecode_media Length = 121.079 units = m