New Object = Circuit.279013_Barra_Slack
~ basekv = 34.5 pu = 1.029 angle = 0
New line.279013279013 phases = 3 bus1 = SourceBus bus2 = 64040074860868357MT.1.2.3 switch = y
New linecode.16512329H-1_linecode_media nphases=3 BaseFreq=60
~ r1=0.000975
~ x1=0.000347
~ c1=0
~ Normamps=175.0
~ Emergamps=245.0
New linecode.16512329H-1_linecode_media nphases=3 BaseFreq=60
~ r1=0.000975
~ x1=0.000347
~ c1=0
~ Normamps=175.0
~ Emergamps=245.0
New linecode.16512329H-1_linecode_media nphases=3 BaseFreq=60
~ r1=0.000975
~ x1=0.000347
~ c1=0
~ Normamps=175.0
~ Emergamps=245.0
New linecode.16512329H-1P_linecode_media nphases=3 BaseFreq=60
~ r1=0.000975
~ x1=0.000347
~ c1=0
~ Normamps=175.0
~ Emergamps=245.0
New linecode.16512329H-2_linecode_media nphases=3 BaseFreq=60
~ r1=0.000975
~ x1=0.000347
~ c1=0
~ Normamps=175.0
~ Emergamps=245.0
New linecode.16512329H-3_linecode_media nphases=3 BaseFreq=60
~ r1=0.000975
~ x1=0.000347
~ c1=0
~ Normamps=175.0
~ Emergamps=245.0
New linecode.16512329H-3P_linecode_media nphases=3 BaseFreq=60
~ r1=0.000975
~ x1=0.000347
~ c1=0
~ Normamps=175.0
~ Emergamps=245.0
New linecode.16512332H-1_linecode_media nphases=3 BaseFreq=60
~ r1=0.0015509999999999999
~ x1=0.000356
~ c1=0
~ Normamps=130.0
~ Emergamps=182.0
New linecode.16512332H-1_linecode_media nphases=3 BaseFreq=60
~ r1=0.0015509999999999999
~ x1=0.000356
~ c1=0
~ Normamps=130.0
~ Emergamps=182.0
New linecode.16512332H-3_linecode_media nphases=3 BaseFreq=60
~ r1=0.0015509999999999999
~ x1=0.000356
~ c1=0
~ Normamps=130.0
~ Emergamps=182.0
New linecode.16512332H-3P_linecode_media nphases=3 BaseFreq=60
~ r1=0.0015509999999999999
~ x1=0.000356
~ c1=0
~ Normamps=130.0
~ Emergamps=182.0
New linecode.16512335H-1_linecode_media nphases=3 BaseFreq=60
~ r1=0.002469
~ x1=0.000186
~ c1=0
~ Normamps=95.0
~ Emergamps=133.0
New linecode.16512335H-1_linecode_media nphases=3 BaseFreq=60
~ r1=0.002469
~ x1=0.000186
~ c1=0
~ Normamps=95.0
~ Emergamps=133.0
New linecode.16512375H-3_linecode_media nphases=3 BaseFreq=60
~ r1=0.000195
~ x1=0.00029099999999999997
~ c1=0
~ Normamps=495.0
~ Emergamps=693.0
New linecode.16512376H-3_linecode_media nphases=3 BaseFreq=60
~ r1=0.000195
~ x1=0.00029099999999999997
~ c1=0
~ Normamps=495.0
~ Emergamps=693.0
New linecode.16512380H-3_linecode_media nphases=3 BaseFreq=60
~ r1=0.0006129999999999999
~ x1=0.00033
~ c1=0
~ Normamps=230.0
~ Emergamps=322.0
New linecode.16512384H-3_linecode_media nphases=3 BaseFreq=60
~ r1=0.000306
~ x1=0.000289
~ c1=0
~ Normamps=350.0
~ Emergamps=490.0
New linecode.45225708H-1_linecode_media nphases=3 BaseFreq=60
~ r1=0.002287
~ x1=0.000186
~ c1=0
~ Normamps=71.0
~ Emergamps=99.0
New linecode.45225708H-1_linecode_media nphases=3 BaseFreq=60
~ r1=0.002287
~ x1=0.000186
~ c1=0
~ Normamps=71.0
~ Emergamps=99.0
New linecode.45225708H-1_linecode_media nphases=3 BaseFreq=60
~ r1=0.002287
~ x1=0.000186
~ c1=0
~ Normamps=71.0
~ Emergamps=99.0
New linecode.5281628C-3_linecode_media nphases=3 BaseFreq=60
~ r1=0.000247
~ x1=0.000259
~ c1=0
~ Normamps=291.0
~ Emergamps=291.0
New line.116514_Chave_seccionadora_media_tensao phases = 3 bus1 = 279116422.1.2.3 bus2 = 279116514.1.2.3 switch = F
New line.116542_Chave_seccionadora_media_tensao phases = 3 bus1 = 279116422.1.2.3 bus2 = 279116542.1.2.3 switch = A
New line.116592_Chave_seccionadora_media_tensao phases = 3 bus1 = 279116514.1.2.3 bus2 = 279116592.1.2.3 switch = F
New line.116528_Chave_seccionadora_media_tensao phases = 3 bus1 = 279116592.1.2.3 bus2 = 64040074860868357MT.1.2.3 switch = F
New line.64653370_Chave_seccionadora_media_tensao phases = 3 bus1 = 64042001860867327MT.1.2.3 bus2 = 64042135860867260MT.1.2.3 switch = F
New line.64653471_Chave_seccionadora_media_tensao phases = 3 bus1 = 64042845860865833MT.1.2.3 bus2 = 64042738860865725MT.1.2.3 switch = A
New line.64653382_Chave_seccionadora_media_tensao phases = 3 bus1 = 64199054860852496MT.1.2.3 bus2 = 64199183860852419MT.1.2.3 switch = F
New line.64668115_Chave_seccionadora_media_tensao phases = 3 bus1 = 64375530860746814MT.1.2.3 bus2 = 64375485860746671MT.1.2.3 switch = F
New line.64732651_Chave_seccionadora_media_tensao phases = 3 bus1 = 64396294860728369MT.1.2.3 bus2 = 64396253860728225MT.1.2.3 switch = F
New line.64689257_Chave_seccionadora_media_tensao phases = 3 bus1 = 64400647860721017MT.1.2.3 bus2 = 64400502860720979MT.1.2.3 switch = F
New line.64668116_Chave_seccionadora_media_tensao phases = 3 bus1 = 64411434860700494MT.1.2.3 bus2 = 64411296860700435MT.1.2.3 switch = F
New line.64653371_Chave_seccionadora_media_tensao phases = 3 bus1 = 64742936860543470MT.1.2.3 bus2 = 64743074860543410MT.1.2.3 switch = F
New line.34604364CT_Chave_seccionadora_media_tensao phases = 3 bus1 = 64877790860228662MT.1.2.3 bus2 = 64877790860228662ET.1.2.3 switch = F
New line.34688606CT_Chave_seccionadora_media_tensao phases = 3 bus1 = 64937391860246307MT.1.2.3 bus2 = 64937391860246307ET.1.2.3 switch = F
New line.34809698CT_Chave_seccionadora_media_tensao phases = 3 bus1 = 64966136860258583MT.1.2.3 bus2 = 64966136860258583ET.1.2.3 switch = F
New line.34684281CT_Chave_seccionadora_media_tensao phases = 3 bus1 = 65016403859483015MT.1.2.3 bus2 = 65016403859483015ET.1.2.3 switch = F
New line.34593281CT_Chave_seccionadora_media_tensao phases = 3 bus1 = 65022298860204175MT.1.2.3 bus2 = 65022298860204175ET.1.2.3 switch = F
New line.34811697CT_Chave_seccionadora_media_tensao phases = 3 bus1 = 65031838859458971MT.1.2.3 bus2 = 65031838859458971ET.1.2.3 switch = F
New line.64686545_Chave_seccionadora_media_tensao phases = 3 bus1 = 65081256860386064MT.1.2.3 bus2 = 65081113860386019MT.1.2.3 switch = F
New line.34622388CT_Chave_seccionadora_media_tensao phases = 3 bus1 = 65109392859577865MT.1.2.3 bus2 = 65109392859577865ET.1.2.3 switch = F
New line.34778766CT_Chave_seccionadora_media_tensao phases = 3 bus1 = 65296933859913708MT.1.2.3 bus2 = 65296933859913708ET.1.2.3 switch = F
New line.64653380_Chave_seccionadora_media_tensao phases = 3 bus1 = 65326422860195927MT.1.2.3 bus2 = 65326499860195799MT.1.2.3 switch = F
New line.64653379_Chave_seccionadora_media_tensao phases = 3 bus1 = 65343641860165973MT.1.2.3 bus2 = 65343721860165846MT.1.2.3 switch = F
New line.64732650_Chave_seccionadora_media_tensao phases = 3 bus1 = 65412005859706085MT.1.2.3 bus2 = 65411977859705938MT.1.2.3 switch = F
New line.64668121_Chave_seccionadora_media_tensao phases = 3 bus1 = 65416960860035051MT.1.2.3 bus2 = 65416818860035002MT.1.2.3 switch = F
New line.34804703CT_Chave_seccionadora_media_tensao phases = 3 bus1 = 65419447859695863MT.1.2.3 bus2 = 65419447859695863ET.1.2.3 switch = F
New line.64732636_Chave_seccionadora_media_tensao phases = 3 bus1 = 65451920859742466MT.1.2.3 bus2 = 65452022859742356MT.1.2.3 switch = F
New line.64668200_Chave_seccionadora_media_tensao phases = 3 bus1 = 65473901859955371MT.1.2.3 bus2 = 65474050859955387MT.1.2.3 switch = F
New line.34644050CT_Chave_seccionadora_media_tensao phases = 3 bus1 = 65510336858709685MT.1.2.3 bus2 = 65510336858709685ET.1.2.3 switch = F
New line.34732976CT_Chave_seccionadora_media_tensao phases = 3 bus1 = 65526130858836017MT.1.2.3 bus2 = 65526130858836017ET.1.2.3 switch = F
New line.64668110_Chave_seccionadora_media_tensao phases = 3 bus1 = 65527361859878154MT.1.2.3 bus2 = 65527289859878022MT.1.2.3 switch = F
New line.64668205_Chave_seccionadora_media_tensao phases = 3 bus1 = 65545593858847748MT.1.2.3 bus2 = 65545585858847598MT.1.2.3 switch = F
New line.64668109_Chave_seccionadora_media_tensao phases = 3 bus1 = 65550219858975819MT.1.2.3 bus2 = 65550079858975872MT.1.2.3 switch = F
New line.64732653_Chave_seccionadora_media_tensao phases = 3 bus1 = 65553932858639436MT.1.2.3 bus2 = 65553787858639396MT.1.2.3 switch = F
New line.34701950CT_Chave_seccionadora_media_tensao phases = 3 bus1 = 65579052859821581MT.1.2.3 bus2 = 65579052859821581ET.1.2.3 switch = F
New line.64672971_Chave_seccionadora_media_tensao phases = 3 bus1 = 65584030859827702MT.1.2.3 bus2 = 65583933859827588MT.1.2.3 switch = F
New line.34723325CT_Chave_seccionadora_media_tensao phases = 3 bus1 = 65594748860024062MT.1.2.3 bus2 = 65594748860024062ET.1.2.3 switch = F
New line.64732634_Chave_seccionadora_media_tensao phases = 3 bus1 = 65658836859238057MT.1.2.3 bus2 = 65658753859238182MT.1.2.3 switch = F
New line.64732633_Chave_seccionadora_media_tensao phases = 3 bus1 = 65676900859247862MT.1.2.3 bus2 = 65676985859247739MT.1.2.3 switch = F
New line.64653295_Chave_seccionadora_media_tensao phases = 3 bus1 = 65690466859730651MT.1.2.3 bus2 = 65690528859730514MT.1.2.3 switch = F
New line.64653286_Chave_seccionadora_media_tensao phases = 3 bus1 = 65690466859730651MT.1.2.3 bus2 = 65690742859730610MT.1.2.3 switch = A
New line.64653368_Chave_seccionadora_media_tensao phases = 3 bus1 = 65691051859729778MT.1.2.3 bus2 = 65690983859729644MT.1.2.3 switch = F
New line.64653288_Chave_seccionadora_media_tensao phases = 3 bus1 = 65767226859550886MT.1.2.3 bus2 = 65767286859550749MT.1.2.3 switch = F
New line.64700987_Chave_seccionadora_media_tensao phases = 3 bus1 = 65792905859490071MT.1.2.3 bus2 = 65793046859490123MT.1.2.3 switch = F
New line.64653369_Chave_seccionadora_media_tensao phases = 3 bus1 = 65847712859367970MT.1.2.3 bus2 = 65847778859367835MT.1.2.3 switch = F
New line.64700988_Chave_seccionadora_media_tensao phases = 3 bus1 = 65858907859343946MT.1.2.3 bus2 = 65858766859343896MT.1.2.3 switch = F
New line.84896682I_Chave_seccionadora_media_tensao phases = 3 bus1 = 65860254859353459MT.1.2.3 bus2 = 65860266859353431MT.1.2.3 switch = A
New line.84896682_Chave_seccionadora_media_tensao phases = 3 bus1 = 65860266859353431MT.1.2.3 bus2 = 65860303859353347MT.1.2.3 switch = A
New line.84896682O_Chave_seccionadora_media_tensao phases = 3 bus1 = 65860374859353178MT.1.2.3 bus2 = 65860316859353320MT.1.2.3 switch = A
New line.84896697CT_Chave_seccionadora_media_tensao phases = 3 bus1 = 65860374859353178MT.1.2.3 bus2 = 65860374859353178ET.1.2.3 switch = F
New line.84896682Y_Chave_seccionadora_media_tensao phases = 3 bus1 = 65860374859353178MT.1.2.3 bus2 = 84896682YISO.1.2.3 switch = A
New line.64653294_Chave_seccionadora_media_tensao phases = 3 bus1 = 65867146859336500MT.1.2.3 bus2 = 65867113859336646MT.1.2.3 switch = F
New line.64652689_Chave_seccionadora_media_tensao phases = 3 bus1 = 65899306859534637MT.1.2.3 bus2 = 65899226859534764MT.1.2.3 switch = F
New line.34694734CT_Chave_seccionadora_media_tensao phases = 3 bus1 = 65899790859533561MT.1.2.3 bus2 = 65899790859533561ET.1.2.3 switch = F
New line.64668120_Chave_seccionadora_media_tensao phases = 3 bus1 = 65901589859529214MT.1.2.3 bus2 = 65901539859529356MT.1.2.3 switch = F
New line.64668114_Chave_seccionadora_media_tensao phases = 3 bus1 = 65923397859542579MT.1.2.3 bus2 = 65923259859542520MT.1.2.3 switch = F
New line.34563619CT_Chave_seccionadora_media_tensao phases = 3 bus1 = 65926343859555630MT.1.2.3 bus2 = 65926343859555630ET.1.2.3 switch = F
New line.64741749_Chave_seccionadora_media_tensao phases = 3 bus1 = 65943876859171303MT.1.2.3 bus2 = 65944025859171318MT.1.2.3 switch = F
New line.64653280_Chave_seccionadora_media_tensao phases = 3 bus1 = 65960596859366748MT.1.2.3 bus2 = 65960743859366780MT.1.2.3 switch = A
New line.64653372_Chave_seccionadora_media_tensao phases = 3 bus1 = 65960715859366368MT.1.2.3 bus2 = 65960853859366427MT.1.2.3 switch = F
New line.64653373_Chave_seccionadora_media_tensao phases = 3 bus1 = 65961505859366626MT.1.2.3 bus2 = 65961651859366658MT.1.2.3 switch = F
New line.34593608CT_Chave_seccionadora_media_tensao phases = 3 bus1 = 65978942859175533MT.1.2.3 bus2 = 65978942859175533ET.1.2.3 switch = F
New line.34790883CT_Chave_seccionadora_media_tensao phases = 3 bus1 = 65990080860028051MT.1.2.3 bus2 = 65990080860028051ET.1.2.3 switch = F
New line.34774812CT_Chave_seccionadora_media_tensao phases = 3 bus1 = 66009302859881589MT.1.2.3 bus2 = 66009302859881589ET.1.2.3 switch = F
New line.34711025CT_Chave_seccionadora_media_tensao phases = 3 bus1 = 66011182858605138MT.1.2.3 bus2 = 66011182858605138ET.1.2.3 switch = F
New line.64741672_Chave_seccionadora_media_tensao phases = 3 bus1 = 66027000857758115MT.1.2.3 bus2 = 66026854857758082MT.1.2.3 switch = F
New line.64668103_Chave_seccionadora_media_tensao phases = 3 bus1 = 66039228858965690MT.1.2.3 bus2 = 66039375858965720MT.1.2.3 switch = F
New line.64732647_Chave_seccionadora_media_tensao phases = 3 bus1 = 66047813858590423MT.1.2.3 bus2 = 66047747858590558MT.1.2.3 switch = F
New line.64706789_Chave_seccionadora_media_tensao phases = 3 bus1 = 66095598858837919MT.1.2.3 bus2 = 66095720858838006MT.1.2.3 switch = F
New line.64732641_Chave_seccionadora_media_tensao phases = 3 bus1 = 66125075858365124MT.1.2.3 bus2 = 66125004858365256MT.1.2.3 switch = F
New line.34722829CT_Chave_seccionadora_media_tensao phases = 3 bus1 = 66143519858985330MT.1.2.3 bus2 = 66143519858985330ET.1.2.3 switch = F
New line.64732637_Chave_seccionadora_media_tensao phases = 3 bus1 = 66164016858608959MT.1.2.3 bus2 = 66163869858608931MT.1.2.3 switch = F
New line.64672968_Chave_seccionadora_media_tensao phases = 3 bus1 = 66164433857789405MT.1.2.3 bus2 = 66164423857789255MT.1.2.3 switch = F
New line.64653289_Chave_seccionadora_media_tensao phases = 3 bus1 = 66165104858606294MT.1.2.3 bus2 = 66165143858606149MT.1.2.3 switch = F
New line.64686547_Chave_seccionadora_media_tensao phases = 3 bus1 = 66188093858520581MT.1.2.3 bus2 = 66188241858520608MT.1.2.3 switch = F
New line.64653381_Chave_seccionadora_media_tensao phases = 3 bus1 = 66211826858219137MT.1.2.3 bus2 = 66211974858219162MT.1.2.3 switch = F
New line.34789523CT_Chave_seccionadora_media_tensao phases = 3 bus1 = 66212269859491497MT.1.2.3 bus2 = 66212269859491497ET.1.2.3 switch = F
New line.64668112_Chave_seccionadora_media_tensao phases = 3 bus1 = 66212304859487033MT.1.2.3 bus2 = 66212310859487183MT.1.2.3 switch = F
New line.64673049_Chave_seccionadora_media_tensao phases = 3 bus1 = 66212328859488793MT.1.2.3 bus2 = 66212340859488943MT.1.2.3 switch = F
New line.64668113_Chave_seccionadora_media_tensao phases = 3 bus1 = 66212476859485780MT.1.2.3 bus2 = 66212456859485929MT.1.2.3 switch = F
New line.64652688_Chave_seccionadora_media_tensao phases = 3 bus1 = 66212489859487904MT.1.2.3 bus2 = 66212339859488158MT.1.2.3 switch = F
New line.34705442CT_Chave_seccionadora_media_tensao phases = 3 bus1 = 66212489859487904MT.1.2.3 bus2 = 66212342859488008ET.1.2.3 switch = F
New line.64672976_Chave_seccionadora_media_tensao phases = 3 bus1 = 66212499859487845MT.1.2.3 bus2 = 66212489859487904MT.1.2.3 switch = F
New line.64652690_Chave_seccionadora_media_tensao phases = 3 bus1 = 66212749859487942MT.1.2.3 bus2 = 66212741859488092MT.1.2.3 switch = A
New line.64668119_Chave_seccionadora_media_tensao phases = 3 bus1 = 66224727858383258MT.1.2.3 bus2 = 66224580858383227MT.1.2.3 switch = F
New line.64668201_Chave_seccionadora_media_tensao phases = 3 bus1 = 66227430858363487MT.1.2.3 bus2 = 66227580858363487MT.1.2.3 switch = F
New line.34718926CT_Chave_seccionadora_media_tensao phases = 3 bus1 = 66275304859703706MT.1.2.3 bus2 = 66275304859703706ET.1.2.3 switch = F
New line.64677011_Chave_seccionadora_media_tensao phases = 3 bus1 = 66314152857833849MT.1.2.3 bus2 = 66314009857833805MT.1.2.3 switch = F
New line.34654690CT_Chave_seccionadora_media_tensao phases = 3 bus1 = 66346215858355504MT.1.2.3 bus2 = 66346215858355504ET.1.2.3 switch = F
New line.64653385_Chave_seccionadora_media_tensao phases = 3 bus1 = 66357731857716184MT.1.2.3 bus2 = 66357779857716042MT.1.2.3 switch = F
New line.64653283_Chave_seccionadora_media_tensao phases = 3 bus1 = 66358117857715054MT.1.2.3 bus2 = 66358123857714694MT.1.2.3 switch = A
New line.64653386_Chave_seccionadora_media_tensao phases = 3 bus1 = 66358117857715054MT.1.2.3 bus2 = 66358152857714908MT.1.2.3 switch = F
New line.64653387_Chave_seccionadora_media_tensao phases = 3 bus1 = 66358222857714727MT.1.2.3 bus2 = 66358283857714590MT.1.2.3 switch = F
New line.64732643_Chave_seccionadora_media_tensao phases = 3 bus1 = 66420443859517551MT.1.2.3 bus2 = 66420522859517424MT.1.2.3 switch = F
New line.64653290_Chave_seccionadora_media_tensao phases = 3 bus1 = 66420814857548572MT.1.2.3 bus2 = 66420867857548432MT.1.2.3 switch = F
New line.34677247CT_Chave_seccionadora_media_tensao phases = 3 bus1 = 66444656859295509MT.1.2.3 bus2 = 66444656859295509ET.1.2.3 switch = F
New line.64672972_Chave_seccionadora_media_tensao phases = 3 bus1 = 66449454859703456MT.1.2.3 bus2 = 66449365859703577MT.1.2.3 switch = F
New line.64676758_Chave_seccionadora_media_tensao phases = 3 bus1 = 66450153859704633MT.1.2.3 bus2 = 66450070859704758MT.1.2.3 switch = F
New line.64668104_Chave_seccionadora_media_tensao phases = 3 bus1 = 66451303857465591MT.1.2.3 bus2 = 66451450857465618MT.1.2.3 switch = F
New line.34636144CT_Chave_seccionadora_media_tensao phases = 3 bus1 = 66455339859708173MT.1.2.3 bus2 = 66455339859708173ET.1.2.3 switch = F
New line.34765792CT_Chave_seccionadora_media_tensao phases = 3 bus1 = 66488386858574937MT.1.2.3 bus2 = 66488386858574937ET.1.2.3 switch = F
New line.64699878_Chave_seccionadora_media_tensao phases = 3 bus1 = 66494863859565149MT.1.2.3 bus2 = 66494811859565290MT.1.2.3 switch = F
New line.64732645_Chave_seccionadora_media_tensao phases = 3 bus1 = 66525232859584681MT.1.2.3 bus2 = 66525337859584573MT.1.2.3 switch = F
New line.64732632_Chave_seccionadora_media_tensao phases = 3 bus1 = 66556059857485669MT.1.2.3 bus2 = 66556173857485572MT.1.2.3 switch = F
New line.34615141CT_Chave_seccionadora_media_tensao phases = 3 bus1 = 66583815859408014MT.1.2.3 bus2 = 66583815859408014ET.1.2.3 switch = F
New line.34593185CT_Chave_seccionadora_media_tensao phases = 3 bus1 = 66587113859400621MT.1.2.3 bus2 = 66587113859400621ET.1.2.3 switch = F
New line.34563591CT_Chave_seccionadora_media_tensao phases = 3 bus1 = 66587808857526889MT.1.2.3 bus2 = 66587808857526889ET.1.2.3 switch = F
New line.64732731_Chave_seccionadora_media_tensao phases = 3 bus1 = 66596737859403719MT.1.2.3 bus2 = 66596595859403766MT.1.2.3 switch = F
New line.64668108_Chave_seccionadora_media_tensao phases = 3 bus1 = 66600020857117617MT.1.2.3 bus2 = 66600155857117681MT.1.2.3 switch = F
New line.34799792CT_Chave_seccionadora_media_tensao phases = 3 bus1 = 66605411859300316MT.1.2.3 bus2 = 66605411859300316ET.1.2.3 switch = F
New line.34765791CT_Chave_seccionadora_media_tensao phases = 3 bus1 = 66605455857446746MT.1.2.3 bus2 = 66605455857446746ET.1.2.3 switch = F
New line.64676752_Chave_seccionadora_media_tensao phases = 3 bus1 = 66623285859610322MT.1.2.3 bus2 = 66623386859610433MT.1.2.3 switch = F
New line.34636198CT_Chave_seccionadora_media_tensao phases = 3 bus1 = 66634423859419457MT.1.2.3 bus2 = 66634423859419457ET.1.2.3 switch = F
New line.64652687_Chave_seccionadora_media_tensao phases = 3 bus1 = 66637168859412431MT.1.2.3 bus2 = 66637110859412293MT.1.2.3 switch = F
New line.34615514CT_Chave_seccionadora_media_tensao phases = 3 bus1 = 66637168859412431MT.1.2.3 bus2 = 66637168859412431ET.1.2.3 switch = F
New line.64653376_Chave_seccionadora_media_tensao phases = 3 bus1 = 66642176859424919MT.1.2.3 bus2 = 66642125859424778MT.1.2.3 switch = F
New line.64668202_Chave_seccionadora_media_tensao phases = 3 bus1 = 66652908857143622MT.1.2.3 bus2 = 66653049857143673MT.1.2.3 switch = F
New line.34633797CT_Chave_seccionadora_media_tensao phases = 3 bus1 = 66665502858274490MT.1.2.3 bus2 = 66665502858274490ET.1.2.3 switch = F
New line.64686551_Chave_seccionadora_media_tensao phases = 3 bus1 = 66675582858284559MT.1.2.3 bus2 = 66675725858284603MT.1.2.3 switch = F
New line.34649676CT_Chave_seccionadora_media_tensao phases = 3 bus1 = 66675766856640621MT.1.2.3 bus2 = 66675766856640621ET.1.2.3 switch = F
New line.34755681CT_Chave_seccionadora_media_tensao phases = 3 bus1 = 66695401857143666MT.1.2.3 bus2 = 66695401857143666ET.1.2.3 switch = F
New line.34655705CT_Chave_seccionadora_media_tensao phases = 3 bus1 = 66698449858304233MT.1.2.3 bus2 = 66698449858304233ET.1.2.3 switch = F
New line.34590834CT_Chave_seccionadora_media_tensao phases = 3 bus1 = 66717533858292560MT.1.2.3 bus2 = 66717533858292560ET.1.2.3 switch = F
New line.64676754_Chave_seccionadora_media_tensao phases = 3 bus1 = 66723720859487991MT.1.2.3 bus2 = 66723605859487895MT.1.2.3 switch = F
New line.34757957CT_Chave_seccionadora_media_tensao phases = 3 bus1 = 66733621856846630MT.1.2.3 bus2 = 66733621856846630ET.1.2.3 switch = F
New line.64689256_Chave_seccionadora_media_tensao phases = 3 bus1 = 66758373859682764MT.1.2.3 bus2 = 66758432859682626MT.1.2.3 switch = F
New line.34806155CT_Chave_seccionadora_media_tensao phases = 3 bus1 = 66758788859697395MT.1.2.3 bus2 = 66758788859697395ET.1.2.3 switch = F
New line.64741671_Chave_seccionadora_media_tensao phases = 3 bus1 = 66761001859676643MT.1.2.3 bus2 = 66761117859676738MT.1.2.3 switch = F
New line.34801599CT_Chave_seccionadora_media_tensao phases = 3 bus1 = 66767699857836914MT.1.2.3 bus2 = 66767699857836914ET.1.2.3 switch = F
New line.64732635_Chave_seccionadora_media_tensao phases = 3 bus1 = 66771944856861483MT.1.2.3 bus2 = 66771802856861434MT.1.2.3 switch = F
New line.64668105_Chave_seccionadora_media_tensao phases = 3 bus1 = 66787753856838113MT.1.2.3 bus2 = 66787883856838189MT.1.2.3 switch = F
New line.64653378_Chave_seccionadora_media_tensao phases = 3 bus1 = 66795938856826537MT.1.2.3 bus2 = 66796020856826411MT.1.2.3 switch = F
New line.64653293_Chave_seccionadora_media_tensao phases = 3 bus1 = 66825664856801658MT.1.2.3 bus2 = 66825811856801686MT.1.2.3 switch = F
New line.64668106_Chave_seccionadora_media_tensao phases = 3 bus1 = 66834805856768500MT.1.2.3 bus2 = 66834678856768420MT.1.2.3 switch = F
New line.64668107_Chave_seccionadora_media_tensao phases = 3 bus1 = 66843070856756117MT.1.2.3 bus2 = 66843200856756191MT.1.2.3 switch = F
New line.34718961CT_Chave_seccionadora_media_tensao phases = 3 bus1 = 66847821858689903MT.1.2.3 bus2 = 66847821858689903ET.1.2.3 switch = F
New line.34606172CT_Chave_seccionadora_media_tensao phases = 3 bus1 = 66886425856894175MT.1.2.3 bus2 = 66886425856894175ET.1.2.3 switch = F
New line.34797132CT_Chave_seccionadora_media_tensao phases = 3 bus1 = 66895157859703107MT.1.2.3 bus2 = 66895157859703107ET.1.2.3 switch = F
New line.64653383_Chave_seccionadora_media_tensao phases = 3 bus1 = 66896869859290805MT.1.2.3 bus2 = 66896962859290688MT.1.2.3 switch = F
New line.34609766CT_Chave_seccionadora_media_tensao phases = 3 bus1 = 66956463857828233MT.1.2.3 bus2 = 66956463857828233ET.1.2.3 switch = F
New line.64703220_Chave_seccionadora_media_tensao phases = 3 bus1 = 66971349859205426MT.1.2.3 bus2 = 66971482859205496MT.1.2.3 switch = F
New line.64653384_Chave_seccionadora_media_tensao phases = 3 bus1 = 66977438859208628MT.1.2.3 bus2 = 66977569859208701MT.1.2.3 switch = F
New line.34675901CT_Chave_seccionadora_media_tensao phases = 3 bus1 = 66995643857900425MT.1.2.3 bus2 = 66995643857900425ET.1.2.3 switch = F
New line.34709885CT_Chave_seccionadora_media_tensao phases = 3 bus1 = 67016831858738519MT.1.2.3 bus2 = 67016831858738519ET.1.2.3 switch = F
New line.34633953CT_Chave_seccionadora_media_tensao phases = 3 bus1 = 67049945859410874MT.1.2.3 bus2 = 67049945859410874ET.1.2.3 switch = F
New line.34604242CT_Chave_seccionadora_media_tensao phases = 3 bus1 = 67072053859434720MT.1.2.3 bus2 = 67072053859434720ET.1.2.3 switch = F
New line.64732638_Chave_seccionadora_media_tensao phases = 3 bus1 = 67073207859432768MT.1.2.3 bus2 = 67073072859432702MT.1.2.3 switch = F
New line.34615746CT_Chave_seccionadora_media_tensao phases = 3 bus1 = 67085520857589447MT.1.2.3 bus2 = 67085520857589447ET.1.2.3 switch = F
New line.64652686_Chave_seccionadora_media_tensao phases = 3 bus1 = 67085529857586661MT.1.2.3 bus2 = 67085472857586800MT.1.2.3 switch = F
New line.34649255CT_Chave_seccionadora_media_tensao phases = 3 bus1 = 67085804857586254MT.1.2.3 bus2 = 67085804857586254ET.1.2.3 switch = F
New line.64651156_Chave_seccionadora_media_tensao phases = 3 bus1 = 67086256857585505MT.1.2.3 bus2 = 67086178857585633MT.1.2.3 switch = F
New line.64741748_Chave_seccionadora_media_tensao phases = 3 bus1 = 67098505857939410MT.1.2.3 bus2 = 67098575857939277MT.1.2.3 switch = F
New line.64732649_Chave_seccionadora_media_tensao phases = 3 bus1 = 67099445857939652MT.1.2.3 bus2 = 67099501857939513MT.1.2.3 switch = F
New line.64732639_Chave_seccionadora_media_tensao phases = 3 bus1 = 67111843857942821MT.1.2.3 bus2 = 67111977857942888MT.1.2.3 switch = F
New line.34644919CT_Chave_seccionadora_media_tensao phases = 3 bus1 = 67118510857946138MT.1.2.3 bus2 = 67118510857946138ET.1.2.3 switch = F
New line.64653375_Chave_seccionadora_media_tensao phases = 3 bus1 = 67119017859038842MT.1.2.3 bus2 = 67119087859038709MT.1.2.3 switch = F
New line.64732640_Chave_seccionadora_media_tensao phases = 3 bus1 = 67121088857946591MT.1.2.3 bus2 = 67121005857946716MT.1.2.3 switch = F
New line.34658256CT_Chave_seccionadora_media_tensao phases = 3 bus1 = 67128460858332657MT.1.2.3 bus2 = 67128460858332657ET.1.2.3 switch = F
New line.34797133CT_Chave_seccionadora_media_tensao phases = 3 bus1 = 67146388858327827MT.1.2.3 bus2 = 67146388858327827ET.1.2.3 switch = F
New line.64672973_Chave_seccionadora_media_tensao phases = 3 bus1 = 67147293858327780MT.1.2.3 bus2 = 67147289858327930MT.1.2.3 switch = F
New line.64676757_Chave_seccionadora_media_tensao phases = 3 bus1 = 67149439858867245MT.1.2.3 bus2 = 67149588858867229MT.1.2.3 switch = F
New line.64676753_Chave_seccionadora_media_tensao phases = 3 bus1 = 67152174859290575MT.1.2.3 bus2 = 67152105859290708MT.1.2.3 switch = F
New line.64732631_Chave_seccionadora_media_tensao phases = 3 bus1 = 67161698858779920MT.1.2.3 bus2 = 67161553858779880MT.1.2.3 switch = F
New line.64732648_Chave_seccionadora_media_tensao phases = 3 bus1 = 67162174857966674MT.1.2.3 bus2 = 67162234857966537MT.1.2.3 switch = F
New line.64676756_Chave_seccionadora_media_tensao phases = 3 bus1 = 67192426858327781MT.1.2.3 bus2 = 67192277858327801MT.1.2.3 switch = F
New line.64676755_Chave_seccionadora_media_tensao phases = 3 bus1 = 67194029858279116MT.1.2.3 bus2 = 67194176858279146MT.1.2.3 switch = F
New line.84854647_Chave_seccionadora_media_tensao phases = 3 bus1 = 67196695858114418MT.1.2.3 bus2 = 67196839858114469MT.1.2.3 switch = F
New line.64653281_Chave_seccionadora_media_tensao phases = 3 bus1 = 67226302858000783MT.1.2.3 bus2 = 67226428858000864MT.1.2.3 switch = A
New line.64677010_Chave_seccionadora_media_tensao phases = 3 bus1 = 67248063858011373MT.1.2.3 bus2 = 67248206858011417MT.1.2.3 switch = F
New line.34706649CT_Chave_seccionadora_media_tensao phases = 3 bus1 = 67324530858318526MT.1.2.3 bus2 = 67324530858318526ET.1.2.3 switch = F
New line.64668111_Chave_seccionadora_media_tensao phases = 3 bus1 = 67360655857683180MT.1.2.3 bus2 = 67360513857683131MT.1.2.3 switch = F
New line.64653377_Chave_seccionadora_media_tensao phases = 3 bus1 = 67379993859396223MT.1.2.3 bus2 = 67380129859396287MT.1.2.3 switch = F
New line.34771703CT_Chave_seccionadora_media_tensao phases = 3 bus1 = 67383780856945981MT.1.2.3 bus2 = 67383780856945981ET.1.2.3 switch = F
New line.34680715CT_Chave_seccionadora_media_tensao phases = 3 bus1 = 67390490856936453MT.1.2.3 bus2 = 67390490856936453ET.1.2.3 switch = F
New line.64653292_Chave_seccionadora_media_tensao phases = 3 bus1 = 67417271859693498MT.1.2.3 bus2 = 67417271859693648MT.1.2.3 switch = F
New line.64732642_Chave_seccionadora_media_tensao phases = 3 bus1 = 67417285859680629MT.1.2.3 bus2 = 67417435859680636MT.1.2.3 switch = F
New line.64672969_Chave_seccionadora_media_tensao phases = 3 bus1 = 67418403858339892MT.1.2.3 bus2 = 67418454858339751MT.1.2.3 switch = F
New line.34690332CT_Chave_seccionadora_media_tensao phases = 3 bus1 = 67422273857145656MT.1.2.3 bus2 = 67422273857145656ET.1.2.3 switch = F
New line.34649677CT_Chave_seccionadora_media_tensao phases = 3 bus1 = 67426184858304667MT.1.2.3 bus2 = 67426184858304667ET.1.2.3 switch = F
New line.34711710CT_Chave_seccionadora_media_tensao phases = 3 bus1 = 67436291856825653MT.1.2.3 bus2 = 67436291856825653ET.1.2.3 switch = F
New line.34713162CT_Chave_seccionadora_media_tensao phases = 3 bus1 = 67451876857019264MT.1.2.3 bus2 = 67451876857019264ET.1.2.3 switch = F
New line.34702249CT_Chave_seccionadora_media_tensao phases = 3 bus1 = 67452840856885441MT.1.2.3 bus2 = 67452840856885441ET.1.2.3 switch = F
New line.64653287_Chave_seccionadora_media_tensao phases = 3 bus1 = 67455182856994791MT.1.2.3 bus2 = 67455264856994917MT.1.2.3 switch = F
New line.34576851CT_Chave_seccionadora_media_tensao phases = 3 bus1 = 67469880856838564MT.1.2.3 bus2 = 67469880856838564ET.1.2.3 switch = F
New line.34672940CT_Chave_seccionadora_media_tensao phases = 3 bus1 = 67469950856818193MT.1.2.3 bus2 = 67469950856818193ET.1.2.3 switch = F
New line.34709940CT_Chave_seccionadora_media_tensao phases = 3 bus1 = 67476099857009817MT.1.2.3 bus2 = 67476099857009817ET.1.2.3 switch = F
New line.34693464CT_Chave_seccionadora_media_tensao phases = 3 bus1 = 67488381857052407MT.1.2.3 bus2 = 67488381857052407ET.1.2.3 switch = F
New line.34600719CT_Chave_seccionadora_media_tensao phases = 3 bus1 = 67492672858091135MT.1.2.3 bus2 = 67492672858091135ET.1.2.3 switch = F
New line.34718808CT_Chave_seccionadora_media_tensao phases = 3 bus1 = 67493907857039354MT.1.2.3 bus2 = 67493907857039354ET.1.2.3 switch = F
New line.64653473_Chave_seccionadora_media_tensao phases = 3 bus1 = 67498453857054400MT.1.2.3 bus2 = 67498515857054335MT.1.2.3 switch = F
New line.64668197_Chave_seccionadora_media_tensao phases = 3 bus1 = 67498479857054594MT.1.2.3 bus2 = 67498584857054487MT.1.2.3 switch = A
New line.34623247CT_Chave_seccionadora_media_tensao phases = 3 bus1 = 67507537857073156MT.1.2.3 bus2 = 67507537857073156ET.1.2.3 switch = F
New line.82857050I_Chave_seccionadora_media_tensao phases = 3 bus1 = 67507574860288997MT.1.2.3 bus2 = 67507582860288968MT.1.2.3 switch = A
New line.82857050Y_Chave_seccionadora_media_tensao phases = 3 bus1 = 67507574860288997MT.1.2.3 bus2 = 67507616860288851MT.1.2.3 switch = A