New Object = Circuit.001002_Barra_Slack
~ basekv = 13.8 pu = 1.029 angle = 0
New line.001002001002 phases = 3 bus1 = SourceBus bus2 = 59904185827576240MT.1.2.3 switch = y
New linecode.16512325H-3_linecode_media nphases=3 BaseFreq=60
~ r1=0.0006129999999999999
~ x1=0.00033
~ c1=0
~ Normamps=235.0
~ Emergamps=329.0
New linecode.16512325H-3P_linecode_media nphases=3 BaseFreq=60
~ r1=0.0006129999999999999
~ x1=0.00033
~ c1=0
~ Normamps=235.0
~ Emergamps=329.0
New linecode.16512328H-3_linecode_media nphases=3 BaseFreq=60
~ r1=0.000306
~ x1=0.00038500000000000003
~ c1=0
~ Normamps=365.0
~ Emergamps=511.0
New linecode.16512329H-3_linecode_media nphases=3 BaseFreq=60
~ r1=0.000975
~ x1=0.000347
~ c1=0
~ Normamps=175.0
~ Emergamps=245.0
New linecode.16512329H-3P_linecode_media nphases=3 BaseFreq=60
~ r1=0.000975
~ x1=0.000347
~ c1=0
~ Normamps=175.0
~ Emergamps=245.0
New linecode.16512375H-3_linecode_media nphases=3 BaseFreq=60
~ r1=0.000195
~ x1=0.00029099999999999997
~ c1=0
~ Normamps=495.0
~ Emergamps=693.0
New linecode.5281622H-3P_linecode_media nphases=3 BaseFreq=60
~ r1=0.00131
~ x1=0.00041
~ c1=0
~ Normamps=68.0
~ Emergamps=68.0
New linecode.5281627C-3_linecode_media nphases=3 BaseFreq=60
~ r1=0.000992
~ x1=0.00011700000000000001
~ c1=0
~ Normamps=70.0
~ Emergamps=70.0
New linecode.5281627C-3P_linecode_media nphases=3 BaseFreq=60
~ r1=0.000992
~ x1=0.00011700000000000001
~ c1=0
~ Normamps=70.0
~ Emergamps=70.0
New linecode.5281628C-3_linecode_media nphases=3 BaseFreq=60
~ r1=0.000247
~ x1=0.000259
~ c1=0
~ Normamps=291.0
~ Emergamps=291.0
New linecode.5281631C-3_linecode_media nphases=3 BaseFreq=60
~ r1=0.000739
~ x1=0.000303
~ c1=0
~ Normamps=152.0
~ Emergamps=181.0
New linecode.5281632C-3_linecode_media nphases=3 BaseFreq=60
~ r1=0.00019700000000000002
~ x1=0.000251
~ c1=0
~ Normamps=368.0
~ Emergamps=400.0
New Capacitor.34559319_Banco_de_Capacitor Bus1 = 59715864827499662MT.1.3 kv = 13.800 kVAR = 17 phases = 2 conn = wye
New line.1207380_Chave_seccionadora_media_tensao phases = 3 bus1 = 0011207356.1.2.3 bus2 = 0011207380.1.2.3 switch = F
New line.1207364_Chave_seccionadora_media_tensao phases = 3 bus1 = 0011207380.1.2.3 bus2 = 59904185827576240MT.1.2.3 switch = F
New line.1207356_Chave_seccionadora_media_tensao phases = 3 bus1 = 0015329860.1.2.3 bus2 = 0011207356.1.2.3 switch = F
New line.64751776_Chave_seccionadora_media_tensao phases = 3 bus1 = 59697771827497267MT.1.2.3 bus2 = 59697846827497137MT.1.2.3 switch = A
New line.64751782_Chave_seccionadora_media_tensao phases = 3 bus1 = 59698096827486174MT.1.2.3 bus2 = 59698241827486136MT.1.2.3 switch = F
New line.64751787_Chave_seccionadora_media_tensao phases = 3 bus1 = 59700191827495940MT.1.2.3 bus2 = 59700043827495918MT.1.2.3 switch = F
New line.64751777_Chave_seccionadora_media_tensao phases = 3 bus1 = 59701222827497197MT.1.2.3 bus2 = 59701366827497241MT.1.2.3 switch = A
New line.34651280CT_Chave_seccionadora_media_tensao phases = 3 bus1 = 59701570827496361MT.1.2.3 bus2 = 59701570827496361ET.1.2.3 switch = F
New line.64740228_Chave_seccionadora_media_tensao phases = 3 bus1 = 59702941827496796MT.1.2.3 bus2 = 59702961827496647MT.1.2.3 switch = F
New line.34657845CT_Chave_seccionadora_media_tensao phases = 3 bus1 = 59703356827489595MT.1.2.3 bus2 = 34657845CTISSO.1.2.3 switch = F
New line.34654153CT_Chave_seccionadora_media_tensao phases = 3 bus1 = 59703356827489595MT.1.2.3 bus2 = 59703356827489595ET.1.2.3 switch = F
New line.34777087CT_Chave_seccionadora_media_tensao phases = 3 bus1 = 59703359827490448MT.1.2.3 bus2 = 59703359827490448ET.1.2.3 switch = F
New line.64751779_Chave_seccionadora_media_tensao phases = 3 bus1 = 59706391827497749MT.1.2.3 bus2 = 59706246827497709MT.1.2.3 switch = F
New line.34751065CT_Chave_seccionadora_media_tensao phases = 3 bus1 = 59717044827507973MT.1.2.3 bus2 = 59717044827507973ET.1.2.3 switch = F
New line.34703388CT_Chave_seccionadora_media_tensao phases = 3 bus1 = 59719266827500348MT.1.2.3 bus2 = 59719266827500348ET.1.2.3 switch = F
New line.64706477_Chave_seccionadora_media_tensao phases = 3 bus1 = 59720261827512231MT.1.2.3 bus2 = 59720126827512166MT.1.2.3 switch = F
New line.64751789_Chave_seccionadora_media_tensao phases = 3 bus1 = 59722491827509448MT.1.2.3 bus2 = 59722400827509568MT.1.2.3 switch = F
New line.64751788_Chave_seccionadora_media_tensao phases = 3 bus1 = 59722849827524612MT.1.2.3 bus2 = 59722949827524724MT.1.2.3 switch = F
New line.34651815CT_Chave_seccionadora_media_tensao phases = 3 bus1 = 59727738827508523MT.1.2.3 bus2 = 59727738827508523ET.1.2.3 switch = F
New line.64751783_Chave_seccionadora_media_tensao phases = 3 bus1 = 59727890827527241MT.1.2.3 bus2 = 59728039827527220MT.1.2.3 switch = F
New line.64751778_Chave_seccionadora_media_tensao phases = 3 bus1 = 59729567827500575MT.1.2.3 bus2 = 59729601827500429MT.1.2.3 switch = F
New line.34629110CT_Chave_seccionadora_media_tensao phases = 3 bus1 = 59729925827494859MT.1.2.3 bus2 = 59729925827494859ET.1.2.3 switch = F
New line.34776848CT_Chave_seccionadora_media_tensao phases = 3 bus1 = 59730301827533163MT.1.2.3 bus2 = 59730301827533163ET.1.2.3 switch = F
New line.64659096_Chave_seccionadora_media_tensao phases = 3 bus1 = 59730480827496687MT.1.2.3 bus2 = 59730331827496674MT.1.2.3 switch = F
New line.34596085CT_Chave_seccionadora_media_tensao phases = 3 bus1 = 59731582827487733MT.1.2.3 bus2 = 59731582827487733ET.1.2.3 switch = F
New line.34741744CT_Chave_seccionadora_media_tensao phases = 3 bus1 = 59731663827491823MT.1.2.3 bus2 = 59731663827491823ET.1.2.3 switch = F
New line.64670655_Chave_seccionadora_media_tensao phases = 3 bus1 = 59732313827488050MT.1.2.3 bus2 = 59732175827487990MT.1.2.3 switch = F
New line.34674947CT_Chave_seccionadora_media_tensao phases = 3 bus1 = 59734623827537869MT.1.2.3 bus2 = 59734623827537869ET.1.2.3 switch = F
New line.34792559CT_Chave_seccionadora_media_tensao phases = 3 bus1 = 59735151827538412MT.1.2.3 bus2 = 59735151827538412ET.1.2.3 switch = F
New line.64751774_Chave_seccionadora_media_tensao phases = 3 bus1 = 59735238827518212MT.1.2.3 bus2 = 59735197827518356MT.1.2.3 switch = A
New line.34781158CT_Chave_seccionadora_media_tensao phases = 3 bus1 = 59736722827514801MT.1.2.3 bus2 = 59736722827514801ET.1.2.3 switch = F
New line.64751780_Chave_seccionadora_media_tensao phases = 3 bus1 = 59740044827506873MT.1.2.3 bus2 = 59739989827507012MT.1.2.3 switch = F
New line.64751772_Chave_seccionadora_media_tensao phases = 3 bus1 = 59742045827497910MT.1.2.3 bus2 = 59742136827497791MT.1.2.3 switch = A
New line.34630183CT_Chave_seccionadora_media_tensao phases = 3 bus1 = 59742062827514965MT.1.2.3 bus2 = 59742062827514965ET.1.2.3 switch = F
New line.64675825_Chave_seccionadora_media_tensao phases = 3 bus1 = 59742187827499767MT.1.2.3 bus2 = 59742318827499839MT.1.2.3 switch = F
New line.64751694_Chave_seccionadora_media_tensao phases = 3 bus1 = 59742447827497945MT.1.2.3 bus2 = 59742475827497987MT.1.2.3 switch = A
New line.64751786_Chave_seccionadora_media_tensao phases = 3 bus1 = 59742494827498243MT.1.2.3 bus2 = 59742534827498162MT.1.2.3 switch = F
New line.34705891CT_Chave_seccionadora_media_tensao phases = 3 bus1 = 59745769827505002MT.1.2.3 bus2 = 59745769827505002ET.1.2.3 switch = F
New line.34769157CT_Chave_seccionadora_media_tensao phases = 3 bus1 = 59748187827521019MT.1.2.3 bus2 = 59748187827521019ET.1.2.3 switch = F
New line.64670654_Chave_seccionadora_media_tensao phases = 3 bus1 = 59749174827521391MT.1.2.3 bus2 = 59749034827521338MT.1.2.3 switch = F
New line.34704132CT_Chave_seccionadora_media_tensao phases = 3 bus1 = 59749735827519790MT.1.2.3 bus2 = 59749735827519790ET.1.2.3 switch = F
New line.34755506CT_Chave_seccionadora_media_tensao phases = 3 bus1 = 59752471827512776MT.1.2.3 bus2 = 59752471827512776ET.1.2.3 switch = F
New line.34682101CT_Chave_seccionadora_media_tensao phases = 3 bus1 = 59752819827511918MT.1.2.3 bus2 = 59752819827511918ET.1.2.3 switch = F
New line.64698704_Chave_seccionadora_media_tensao phases = 3 bus1 = 59754027827509150MT.1.2.3 bus2 = 59753967827509287MT.1.2.3 switch = F
New line.34798802CT_Chave_seccionadora_media_tensao phases = 3 bus1 = 59755655827501175MT.1.2.3 bus2 = 59755655827501175ET.1.2.3 switch = F
New line.34804823CT_Chave_seccionadora_media_tensao phases = 3 bus1 = 59755961827506976MT.1.2.3 bus2 = 59755961827506976ET.1.2.3 switch = F
New line.34667192CT_Chave_seccionadora_media_tensao phases = 3 bus1 = 59756248827496437MT.1.2.3 bus2 = 59756248827496437ET.1.2.3 switch = F
New line.64659097_Chave_seccionadora_media_tensao phases = 3 bus1 = 59761056827501254MT.1.2.3 bus2 = 59760911827501215MT.1.2.3 switch = F
New line.34589241CT_Chave_seccionadora_media_tensao phases = 3 bus1 = 59762124827497594MT.1.2.3 bus2 = 59762124827497594ET.1.2.3 switch = F
New line.64740227_Chave_seccionadora_media_tensao phases = 3 bus1 = 59764196827509535MT.1.2.3 bus2 = 59764154827509679MT.1.2.3 switch = F
New line.34581371CT_Chave_seccionadora_media_tensao phases = 3 bus1 = 59765802827512445MT.1.2.3 bus2 = 59765802827512445ET.1.2.3 switch = F
New line.64709884_Chave_seccionadora_media_tensao phases = 3 bus1 = 59767765827510675MT.1.2.3 bus2 = 59767789827510527MT.1.2.3 switch = F
New line.34719405CT_Chave_seccionadora_media_tensao phases = 3 bus1 = 59769451827505176MT.1.2.3 bus2 = 59769451827505176ET.1.2.3 switch = F
New line.64751784_Chave_seccionadora_media_tensao phases = 3 bus1 = 59769638827516027MT.1.2.3 bus2 = 59769347827515904MT.1.2.3 switch = F
New line.64751771_Chave_seccionadora_media_tensao phases = 3 bus1 = 59769778827516435MT.1.2.3 bus2 = 59769637827516383MT.1.2.3 switch = A
New line.64751695_Chave_seccionadora_media_tensao phases = 3 bus1 = 59769788827516087MT.1.2.3 bus2 = 59769638827516027MT.1.2.3 switch = F
New line.64751785_Chave_seccionadora_media_tensao phases = 3 bus1 = 59769937827516071MT.1.2.3 bus2 = 59769788827516087MT.1.2.3 switch = F
New line.34621609CT_Chave_seccionadora_media_tensao phases = 3 bus1 = 59770391827514640MT.1.2.3 bus2 = 59770391827514640ET.1.2.3 switch = F
New line.64670653_Chave_seccionadora_media_tensao phases = 3 bus1 = 59771318827516500MT.1.2.3 bus2 = 59771251827516366MT.1.2.3 switch = F
New line.34676976CT_Chave_seccionadora_media_tensao phases = 3 bus1 = 59801075827527977MT.1.2.3 bus2 = 59801075827527977ET.1.2.3 switch = F
New line.34724002CT_Chave_seccionadora_media_tensao phases = 3 bus1 = 59806821827530244MT.1.2.3 bus2 = 59806821827530244ET.1.2.3 switch = F
New line.34719409CT_Chave_seccionadora_media_tensao phases = 3 bus1 = 59854681827548506MT.1.2.3 bus2 = 59854681827548506ET.1.2.3 switch = F
New line.64751781_Chave_seccionadora_media_tensao phases = 3 bus1 = 59872357827555249MT.1.2.3 bus2 = 59872218827555193MT.1.2.3 switch = F
New line.34760174CT_Chave_seccionadora_media_tensao phases = 3 bus1 = 59884204827574489MT.1.2.3 bus2 = 59884204827574489ET.1.2.3 switch = F
New line.34756002CT_Chave_seccionadora_media_tensao phases = 3 bus1 = 59902179827569261MT.1.2.3 bus2 = 59902179827569261ET.1.2.3 switch = F
New line.64709883_Chave_seccionadora_media_tensao phases = 3 bus1 = 59902819827568278MT.1.2.3 bus2 = 59902737827568404MT.1.2.3 switch = F
New line.1207372_Chave_seccionadora_media_tensao phases = 3 bus1 = 59904185827576240MT.1.2.3 bus2 = 0011207372.1.2.3 switch = A
New line.64751790_Chave_seccionadora_media_tensao phases = 3 bus1 = 59905479827569846MT.1.2.3 bus2 = 59905599827569756MT.1.2.3 switch = F
New Load.nome_00a1f2cf64df27b4da2e762b7fe87f42a1f4d7ade34da89d5494f66293c1f4fb_curva_diaria_MT-Tipo10_curva_anual_309.65_246.72_253.96_268.2_264.36_270.61_228.19_328.15_408.25_488.37_479.03_457.03_carga_media Bus1=59731663827491823MT.1.2.3 Phases=3
~ Conn=wye Model=1 Kv=13.8 Kw=1 pf=0.92
New Load.nome_07a9598cd68af8f0978a045a63deaea21b9a485074453416ce663d8b6be6f56c_curva_diaria_MT-Tipo9_curva_anual_68.63_58.61_60.88_65.76_68.84_65.8_64.57_75.96_78.88_80.1_77.4_71.5_carga_media Bus1=59726432827496334MT.1.2.3 Phases=3
~ Conn=wye Model=1 Kv=13.8 Kw=1 pf=0.92
New Load.nome_8092aa127b199444500bee8e1ea3ffb07642831886e95318bd7b75fde456c711_curva_diaria_MT-Tipo5_curva_anual_1272.69_1061.35_1341.31_1162.55_1275.37_1062.26_1150.88_1456.11_1546.93_1774.54_1559.5_1571.7_carga_media Bus1=59735151827538412MT.1.2.3 Phases=3
~ Conn=wye Model=1 Kv=13.8 Kw=1 pf=0.92
New Load.nome_b20ab548a2ff09b133046997e050acfaed58c318554b8f93157275cdd04cb349_curva_diaria_MT-Tipo8_curva_anual_200.98_166.67_208.56_187.25_207.4_184.5_195.54_238.85_240.22_241.3_217.41_220.93_carga_media Bus1=59734623827537869MT.1.2.3 Phases=3
~ Conn=wye Model=1 Kv=13.8 Kw=1 pf=0.92
New Load.nome_dd7810a65ad0868c7a0f84f04788310c03fc8ef936e18b67d3be0c9d17cdd5dc_curva_diaria_MT-Tipo5_curva_anual_260.35_214.58_279.37_226.18_255.05_197.89_227.9_314.85_338.13_403.85_350.33_312.94_carga_media Bus1=59755655827501175MT.1.2.3 Phases=3
~ Conn=wye Model=1 Kv=13.8 Kw=1 pf=0.92
New linecode.16512325H-3_linecode_media nphases=3 BaseFreq=60
~ r1=0.0006129999999999999
~ x1=0.00033
~ c1=0
~ Normamps=235.0
~ Emergamps=329.0
New linecode.16512325H-3P_linecode_media nphases=3 BaseFreq=60
~ r1=0.0006129999999999999
~ x1=0.00033
~ c1=0
~ Normamps=235.0
~ Emergamps=329.0
New linecode.16512328H-3_linecode_media nphases=3 BaseFreq=60
~ r1=0.000306
~ x1=0.00038500000000000003
~ c1=0
~ Normamps=365.0
~ Emergamps=511.0
New linecode.16512329H-3_linecode_media nphases=3 BaseFreq=60
~ r1=0.000975
~ x1=0.000347
~ c1=0
~ Normamps=175.0
~ Emergamps=245.0
New linecode.16512329H-3P_linecode_media nphases=3 BaseFreq=60
~ r1=0.000975
~ x1=0.000347
~ c1=0
~ Normamps=175.0
~ Emergamps=245.0
New linecode.16512375H-3_linecode_media nphases=3 BaseFreq=60
~ r1=0.000195
~ x1=0.00029099999999999997
~ c1=0
~ Normamps=495.0
~ Emergamps=693.0
New linecode.5281622H-3P_linecode_media nphases=3 BaseFreq=60
~ r1=0.00131
~ x1=0.00041
~ c1=0
~ Normamps=68.0
~ Emergamps=68.0
New linecode.5281627C-3_linecode_media nphases=3 BaseFreq=60
~ r1=0.000992
~ x1=0.00011700000000000001
~ c1=0
~ Normamps=70.0
~ Emergamps=70.0
New linecode.5281627C-3P_linecode_media nphases=3 BaseFreq=60
~ r1=0.000992
~ x1=0.00011700000000000001
~ c1=0
~ Normamps=70.0
~ Emergamps=70.0
New linecode.5281628C-3_linecode_media nphases=3 BaseFreq=60
~ r1=0.000247
~ x1=0.000259
~ c1=0
~ Normamps=291.0
~ Emergamps=291.0
New linecode.5281631C-3_linecode_media nphases=3 BaseFreq=60
~ r1=0.000739
~ x1=0.000303
~ c1=0
~ Normamps=152.0
~ Emergamps=181.0
New linecode.5281632C-3_linecode_media nphases=3 BaseFreq=60
~ r1=0.00019700000000000002
~ x1=0.000251
~ c1=0
~ Normamps=368.0
~ Emergamps=400.0
New Line.16757453_linha_media Phases = 3 Bus1 = 59761494827499801MT.1.2.3 Bus2 = 59762124827497594MT.1.2.3 Linecode = 16512329H-3_linecode_media Length = 22.952 units = m
New Line.17048658_linha_media Phases = 3 Bus1 = 59742318827499839MT.1.2.3 Bus2 = 59743486827500480MT.1.2.3 Linecode = 16512329H-3_linecode_media Length = 14.818 units = m
New Line.12658753_linha_media Phases = 3 Bus1 = 59727000827503864MT.1.2.3 Bus2 = 59724457827507004MT.1.2.3 Linecode = 5281628C-3_linecode_media Length = 38.529 units = m
New Line.16757454_linha_media Phases = 3 Bus1 = 59759643827505320MT.1.2.3 Bus2 = 59760722827502231MT.1.2.3 Linecode = 16512329H-3_linecode_media Length = 32.72 units = m
New Line.15942356_linha_media Phases = 3 Bus1 = 59884204827574489MT.1.2.3 Bus2 = 59882223827571150MT.1.2.3 Linecode = 5281632C-3_linecode_media Length = 38.824 units = m
New Line.15901506_linha_media Phases = 3 Bus1 = 59755961827506976MT.1.2.3 Bus2 = 59755060827506769MT.1.2.3 Linecode = 16512375H-3_linecode_media Length = 9.245 units = m
New Line.15028628_linha_media Phases = 3 Bus1 = 59720407827512296MT.1.2.3 Bus2 = 59720261827512231MT.1.2.3 Linecode = 16512329H-3_linecode_media Length = 1.598 units = m
New Line.16004796_linha_media Phases = 3 Bus1 = 59765623827510036MT.1.2.3 Bus2 = 59764196827509535MT.1.2.3 Linecode = 16512375H-3_linecode_media Length = 15.124 units = m
New Line.15028632_linha_media Phases = 3 Bus1 = 59732465827488100MT.1.2.3 Bus2 = 59732313827488050MT.1.2.3 Linecode = 16512329H-3P_linecode_media Length = 1.6 units = m
New Line.15028624_linha_media Phases = 3 Bus1 = 59770032827516199MT.1.2.3 Bus2 = 59769778827516435MT.1.2.3 Linecode = 16512329H-3_linecode_media Length = 1.598 units = m
New Line.16728909_linha_media Phases = 3 Bus1 = 59732421827535534MT.1.2.3 Bus2 = 59734623827537869MT.1.2.3 Linecode = 5281632C-3_linecode_media Length = 32.095 units = m
New Line.15901505_linha_media Phases = 3 Bus1 = 59755060827506769MT.1.2.3 Bus2 = 59755088827506101MT.1.2.3 Linecode = 16512329H-3_linecode_media Length = 6.686 units = m
New Line.14885973_linha_media Phases = 3 Bus1 = 59706932827499966MT.1.2.3 Bus2 = 59705652827498596MT.1.2.3 Linecode = 5281632C-3_linecode_media Length = 18.749 units = m
New Line.15901897_linha_media Phases = 3 Bus1 = 59902737827568404MT.1.2.3 Bus2 = 59902179827569261MT.1.2.3 Linecode = 16512329H-3_linecode_media Length = 11.73 units = m
New Line.16005077_linha_media Phases = 3 Bus1 = 59891390827586113MT.1.2.3 Bus2 = 59889095827585436MT.1.2.3 Linecode = 5281632C-3_linecode_media Length = 23.928 units = m
New Line.16005055_linha_media Phases = 3 Bus1 = 59894771827582736MT.1.2.3 Bus2 = 59894079827584809MT.1.2.3 Linecode = 5281632C-3_linecode_media Length = 21.855 units = m
New Line.13692058_linha_media Phases = 3 Bus1 = 59755088827506101MT.1.2.3 Bus2 = 59755403827502989MT.1.2.3 Linecode = 5281631C-3_linecode_media Length = 29.564 units = m
New Line.15901507_linha_media Phases = 3 Bus1 = 59741044827504172MT.1.2.3 Bus2 = 59740044827506873MT.1.2.3 Linecode = 16512375H-3_linecode_media Length = 28.802 units = m
New Line.13703792_linha_media Phases = 3 Bus1 = 59792867827524880MT.1.2.3 Bus2 = 59789268827523621MT.1.2.3 Linecode = 16512375H-3_linecode_media Length = 36.825 units = m
New Line.16004793_linha_media Phases = 3 Bus1 = 59733003827502810MT.1.2.3 Bus2 = 59729458827502233MT.1.2.3 Linecode = 16512375H-3_linecode_media Length = 35.917 units = m
New Line.16005048_linha_media Phases = 3 Bus1 = 59861072827550792MT.1.2.3 Bus2 = 59857847827549624MT.1.2.3 Linecode = 16512375H-3_linecode_media Length = 34.3 units = m
New Line.16005049_linha_media Phases = 3 Bus1 = 59863417827551874MT.1.2.3 Bus2 = 59861072827550792MT.1.2.3 Linecode = 16512375H-3_linecode_media Length = 25.826 units = m
New Line.16005053_linha_media Phases = 3 Bus1 = 59886357827577086MT.1.2.3 Bus2 = 59884204827574489MT.1.2.3 Linecode = 5281632C-3_linecode_media Length = 33.734 units = m
New Line.13736096_linha_media Phases = 3 Bus1 = 59742950827504473MT.1.2.3 Bus2 = 59741044827504172MT.1.2.3 Linecode = 16512375H-3_linecode_media Length = 17.227 units = m
New Line.14844446_linha_media Phases = 3 Bus1 = 59698296827496250MT.1.2.3 Bus2 = 59698052827496782MT.1.2.3 Linecode = 16512328H-3_linecode_media Length = 5.853 units = m
New Line.16004863_linha_media Phases = 3 Bus1 = 59768169827508131MT.1.2.3 Bus2 = 59769451827505176MT.1.2.3 Linecode = 16512329H-3_linecode_media Length = 32.211 units = m
New Line.13478792_linha_media Phases = 3 Bus1 = 59755655827501175MT.1.2.3 Bus2 = 59755841827499728MT.1.2.3 Linecode = 5281631C-3_linecode_media Length = 14.589 units = m
New Line.13736106_linha_media Phases = 3 Bus1 = 59739728827503888MT.1.2.3 Bus2 = 59736314827503352MT.1.2.3 Linecode = 16512375H-3_linecode_media Length = 34.558 units = m
New Line.13706206_linha_media Phases = 3 Bus1 = 59876466827558735MT.1.2.3 Bus2 = 59875874827556588MT.1.2.3 Linecode = 5281632C-3_linecode_media Length = 19.658 units = m
New Line.16785377_linha_media Phases = 3 Bus1 = 59900389827568410MT.1.2.3 Bus2 = 59898716827571418MT.1.2.3 Linecode = 5281632C-3_linecode_media Length = 34.419 units = m
New Line.16485622_linha_media Phases = 3 Bus1 = 59726108827528248MT.1.2.3 Bus2 = 59727607827530161MT.1.2.3 Linecode = 5281632C-3_linecode_media Length = 24.303 units = m
New Line.16005010_linha_media Phases = 3 Bus1 = 59797954827526486MT.1.2.3 Bus2 = 59795657827525968MT.1.2.3 Linecode = 16512375H-3_linecode_media Length = 23.547 units = m
New Line.13159753_linha_media Phases = 3 Bus1 = 59698728827495724MT.1.2.3 Bus2 = 59698296827496250MT.1.2.3 Linecode = 16512328H-3_linecode_media Length = 5.411 units = m
New Line.16006603_linha_media Phases = 3 Bus1 = 59703309827492930MT.1.2.3 Bus2 = 59703359827490448MT.1.2.3 Linecode = 16512329H-3P_linecode_media Length = 24.825 units = m
New Line.13703785_linha_media Phases = 3 Bus1 = 59872775827568096MT.1.2.3 Bus2 = 59874011827565490MT.1.2.3 Linecode = 5281632C-3_linecode_media Length = 27.417 units = m
New Line.15368131_linha_media Phases = 3 Bus1 = 59907967827569935MT.1.2.3 Bus2 = 59910107827570260MT.1.2.3 Linecode = 5281632C-3_linecode_media Length = 23.143 units = m
New Line.16005043_linha_media Phases = 3 Bus1 = 59845645827544953MT.1.2.3 Bus2 = 59842154827543712MT.1.2.3 Linecode = 16512375H-3_linecode_media Length = 37.05 units = m
New Line.15028619_linha_media Phases = 3 Bus1 = 59727890827527241MT.1.2.3 Bus2 = 59727944827527090MT.1.2.3 Linecode = 16512329H-3_linecode_media Length = 1.604 units = m
New Line.16785378_linha_media Phases = 3 Bus1 = 59898716827571418MT.1.2.3 Bus2 = 59897833827574401MT.1.2.3 Linecode = 5281632C-3_linecode_media Length = 31.109 units = m
New Line.16005045_linha_media Phases = 3 Bus1 = 59851649827547427MT.1.2.3 Bus2 = 59848791827546226MT.1.2.3 Linecode = 16512375H-3_linecode_media Length = 31.001 units = m
New Line.15028631_linha_media Phases = 3 Bus1 = 59771282827516655MT.1.2.3 Bus2 = 59771318827516500MT.1.2.3 Linecode = 16512329H-3P_linecode_media Length = 1.591 units = m
New Line.18292482_linha_media Phases = 3 Bus1 = 59752819827511918MT.1.2.3 Bus2 = 59752471827512776MT.1.2.3 Linecode = 16512329H-3_linecode_media Length = 9.259 units = m
New Line.16005041_linha_media Phases = 3 Bus1 = 59838663827542356MT.1.2.3 Bus2 = 59835079827540905MT.1.2.3 Linecode = 16512375H-3_linecode_media Length = 38.666 units = m
New Line.16757792_linha_media Phases = 3 Bus1 = 59758746827507851MT.1.2.3 Bus2 = 59758425827508782MT.1.2.3 Linecode = 16512329H-3_linecode_media Length = 9.848 units = m
New Line.16005008_linha_media Phases = 3 Bus1 = 59789268827523621MT.1.2.3 Bus2 = 59785960827522415MT.1.2.3 Linecode = 16512375H-3_linecode_media Length = 35.21 units = m
New Line.16004790_linha_media Phases = 3 Bus1 = 59718432827514941MT.1.2.3 Bus2 = 59716729827517370MT.1.2.3 Linecode = 5281628C-3_linecode_media Length = 29.665 units = m
New Line.13546737_linha_media Phases = 3 Bus1 = 59730161827497990MT.1.2.3 Bus2 = 59730480827496687MT.1.2.3 Linecode = 16512329H-3_linecode_media Length = 13.415 units = m
New Line.16005015_linha_media Phases = 3 Bus1 = 59817177827534102MT.1.2.3 Bus2 = 59814420827533035MT.1.2.3 Linecode = 16512375H-3_linecode_media Length = 29.563 units = m
New Line.13089482_linha_media Phases = 3 Bus1 = 59730480827496687MT.1.2.3 Bus2 = 59730834827495055MT.1.2.3 Linecode = 16512329H-3_linecode_media Length = 16.7 units = m
New Line.15366491_linha_media Phases = 3 Bus1 = 59728503827502072MT.1.2.3 Bus2 = 59729567827500575MT.1.2.3 Linecode = 5281628C-3_linecode_media Length = 18.366 units = m
New Line.16005071_linha_media Phases = 3 Bus1 = 59715864827499662MT.1.2.3 Bus2 = 59712355827498966MT.1.2.3 Linecode = 16512375H-3_linecode_media Length = 35.774 units = m
New Line.16004792_linha_media Phases = 3 Bus1 = 59729458827502233MT.1.2.3 Bus2 = 59728503827502072MT.1.2.3 Linecode = 16512375H-3_linecode_media Length = 9.685 units = m
New Line.15364970_linha_media Phases = 3 Bus1 = 59729601827500429MT.1.2.3 Bus2 = 59730161827497990MT.1.2.3 Linecode = 16512329H-3_linecode_media Length = 26.524 units = m
New Line.14885043_linha_media Phases = 3 Bus1 = 59904185827576240MT.1.2.3 Bus2 = 59903688827576127MT.1.2.3 Linecode = 5281632C-3_linecode_media Length = 5.097 units = m
New Line.16005012_linha_media Phases = 3 Bus1 = 59809599827531164MT.1.2.3 Bus2 = 59806821827530244MT.1.2.3 Linecode = 16512375H-3_linecode_media Length = 29.264 units = m
New Line.13705927_linha_media Phases = 3 Bus1 = 59875695827568351MT.1.2.3 Bus2 = 59872775827568096MT.1.2.3 Linecode = 5281632C-3_linecode_media Length = 27.202 units = m
New Line.15901508_linha_media Phases = 3 Bus1 = 59728503827502072MT.1.2.3 Bus2 = 59727000827503864MT.1.2.3 Linecode = 5281628C-3_linecode_media Length = 23.389 units = m
New Line.16728916_linha_media Phases = 3 Bus1 = 59739989827507012MT.1.2.3 Bus2 = 59738416827510981MT.1.2.3 Linecode = 16512325H-3_linecode_media Length = 44.188 units = m
New Line.13159755_linha_media Phases = 3 Bus1 = 59716729827517370MT.1.2.3 Bus2 = 59718279827519735MT.1.2.3 Linecode = 5281628C-3_linecode_media Length = 28.046 units = m
New Line.13705920_linha_media Phases = 3 Bus1 = 59889095827585436MT.1.2.3 Bus2 = 59885922827582460MT.1.2.3 Linecode = 5281632C-3_linecode_media Length = 43.502 units = m
New Line.15028623_linha_media Phases = 3 Bus1 = 59698241827486136MT.1.2.3 Bus2 = 59698275827486127MT.1.2.3 Linecode = 16512329H-3_linecode_media Length = 1.851 units = m
New Line.13705924_linha_media Phases = 3 Bus1 = 59888112827580012MT.1.2.3 Bus2 = 59886357827577086MT.1.2.3 Linecode = 5281632C-3_linecode_media Length = 32.89 units = m
New Line.13169491_linha_media Phases = 3 Bus1 = 59719735827510100MT.1.2.3 Bus2 = 59717044827507973MT.1.2.3 Linecode = 5281632C-3_linecode_media Length = 34.301 units = m
New Line.16004795_linha_media Phases = 3 Bus1 = 59752597827506298MT.1.2.3 Bus2 = 59749822827505771MT.1.2.3 Linecode = 16512375H-3_linecode_media Length = 28.246 units = m
New Line.13108552_linha_media Phases = 3 Bus1 = 59771251827516366MT.1.2.3 Bus2 = 59770391827514640MT.1.2.3 Linecode = 5281627C-3P_linecode_media Length = 20.782 units = m
New Line.16929574_linha_media Phases = 3 Bus1 = 59902819827568278MT.1.2.3 Bus2 = 59900389827568410MT.1.2.3 Linecode = 5281632C-3_linecode_media Length = 24.336 units = m
New Line.16005070_linha_media Phases = 3 Bus1 = 59745769827505002MT.1.2.3 Bus2 = 59742950827504473MT.1.2.3 Linecode = 16512375H-3_linecode_media Length = 28.682 units = m
New Line.13723133_linha_media Phases = 3 Bus1 = 59765125827514511MT.1.2.3 Bus2 = 59765802827512445MT.1.2.3 Linecode = 16512375H-3_linecode_media Length = 19.28 units = m
New Line.16005067_linha_media Phases = 3 Bus1 = 59767789827510527MT.1.2.3 Bus2 = 59768169827508131MT.1.2.3 Linecode = 16512329H-3_linecode_media Length = 25.759 units = m
New Line.15366566_linha_media Phases = 3 Bus1 = 59753967827509287MT.1.2.3 Bus2 = 59752819827511918MT.1.2.3 Linecode = 16512329H-3_linecode_media Length = 30.201 units = m
New Line.15366493_linha_media Phases = 3 Bus1 = 59736722827514801MT.1.2.3 Bus2 = 59735238827518212MT.1.2.3 Linecode = 16512325H-3_linecode_media Length = 37.198 units = m
New Line.16005052_linha_media Phases = 3 Bus1 = 59880024827569114MT.1.2.3 Bus2 = 59877200827566627MT.1.2.3 Linecode = 5281632C-3_linecode_media Length = 37.63 units = m
New Line.14885974_linha_media Phases = 3 Bus1 = 59709071827501643MT.1.2.3 Bus2 = 59706932827499966MT.1.2.3 Linecode = 5281632C-3_linecode_media Length = 27.18 units = m
New Line.16004862_linha_media Phases = 3 Bus1 = 59768389827515487MT.1.2.3 Bus2 = 59765125827514511MT.1.2.3 Linecode = 16512375H-3_linecode_media Length = 34.068 units = m
New Line.15366486_linha_media Phases = 3 Bus1 = 59725379827527457MT.1.2.3 Bus2 = 59726108827528248MT.1.2.3 Linecode = 5281632C-3_linecode_media Length = 10.757 units = m
New Line.15366485_linha_media Phases = 3 Bus1 = 59726108827528248MT.1.2.3 Bus2 = 59725041827529029MT.1.2.3 Linecode = 16512325H-3P_linecode_media Length = 13.223 units = m
New Line.16005046_linha_media Phases = 3 Bus1 = 59854681827548506MT.1.2.3 Bus2 = 59851649827547427MT.1.2.3 Linecode = 16512375H-3_linecode_media Length = 32.183 units = m
New Line.15365260_linha_media Phases = 3 Bus1 = 59766513827510291MT.1.2.3 Bus2 = 59767107827508481MT.1.2.3 Linecode = 16512375H-3_linecode_media Length = 19.05 units = m
New Line.16005013_linha_media Phases = 3 Bus1 = 59812140827532263MT.1.2.3 Bus2 = 59809599827531164MT.1.2.3 Linecode = 16512375H-3_linecode_media Length = 27.685 units = m
New Line.13705926_linha_media Phases = 3 Bus1 = 59877200827566627MT.1.2.3 Bus2 = 59875695827568351MT.1.2.3 Linecode = 5281632C-3_linecode_media Length = 22.885 units = m
New Line.15366567_linha_media Phases = 3 Bus1 = 59755060827506769MT.1.2.3 Bus2 = 59754027827509150MT.1.2.3 Linecode = 16512329H-3_linecode_media Length = 25.954 units = m
New Line.15901504_linha_media Phases = 3 Bus1 = 59766513827510291MT.1.2.3 Bus2 = 59767765827510675MT.1.2.3 Linecode = 16512375H-3_linecode_media Length = 13.096 units = m
New Line.15028630_linha_media Phases = 3 Bus1 = 59742551827498094MT.1.2.3 Bus2 = 59742494827498243MT.1.2.3 Linecode = 16512329H-3_linecode_media Length = 1.595 units = m
New Line.18437729_linha_media Phases = 3 Bus1 = 59872218827555193MT.1.2.3 Bus2 = 59869211827553977MT.1.2.3 Linecode = 16512375H-3_linecode_media Length = 33.934 units = m
New Line.17176136_linha_media Phases = 3 Bus1 = 59698728827495724MT.1.2.3 Bus2 = 59698632827492346MT.1.2.3 Linecode = 16512328H-3_linecode_media Length = 32.035 units = m
New Line.16004794_linha_media Phases = 3 Bus1 = 59749822827505771MT.1.2.3 Bus2 = 59745769827505002MT.1.2.3 Linecode = 16512375H-3_linecode_media Length = 41.253 units = m
New Line.13543348_linha_media Phases = 3 Bus1 = 59749034827521338MT.1.2.3 Bus2 = 59748187827521019MT.1.2.3 Linecode = 5281622H-3P_linecode_media Length = 10.548 units = m
New Line.16005056_linha_media Phases = 3 Bus1 = 59896949827577124MT.1.2.3 Bus2 = 59895634827580089MT.1.2.3 Linecode = 5281632C-3_linecode_media Length = 32.435 units = m
New Line.12710362_linha_media Phases = 3 Bus1 = 59897833827574401MT.1.2.3 Bus2 = 59896949827577124MT.1.2.3 Linecode = 5281632C-3_linecode_media Length = 28.629 units = m
New Line.13089483_linha_media Phases = 3 Bus1 = 59730331827496674MT.1.2.3 Bus2 = 59726432827496334MT.1.2.3 Linecode = 5281627C-3_linecode_media Length = 40.634 units = m
New Line.16133279_linha_media Phases = 3 Bus1 = 59737617827512813MT.1.2.3 Bus2 = 59736628827512383MT.1.2.3 Linecode = 16512329H-3_linecode_media Length = 10.784 units = m