New Object = Circuit.001001_Barra_Slack
~ basekv = 13.8 pu = 1.029 angle = 0
New line.001001001001 phases = 3 bus1 = SourceBus bus2 = 59904014827576618MT.1.2.3 switch = y

New linecode.16512328H-3_linecode_media nphases=3 BaseFreq=60
~ r1=0.000306
~ x1=0.00038500000000000003
~ c1=0
~ Normamps=365.0
~ Emergamps=511.0

New linecode.16512329H-3_linecode_media nphases=3 BaseFreq=60
~ r1=0.000975
~ x1=0.000347
~ c1=0
~ Normamps=175.0
~ Emergamps=245.0

New linecode.16512329H-3P_linecode_media nphases=3 BaseFreq=60
~ r1=0.000975
~ x1=0.000347
~ c1=0
~ Normamps=175.0
~ Emergamps=245.0

New linecode.16512375H-3_linecode_media nphases=3 BaseFreq=60
~ r1=0.000195
~ x1=0.00029099999999999997
~ c1=0
~ Normamps=495.0
~ Emergamps=693.0

New linecode.45225705C-3_linecode_media nphases=3 BaseFreq=60
~ r1=0.000732
~ x1=0.000303
~ c1=0
~ Normamps=184.0
~ Emergamps=258.0

New linecode.5281622H-3_linecode_media nphases=3 BaseFreq=60
~ r1=0.00131
~ x1=0.00041
~ c1=0
~ Normamps=68.0
~ Emergamps=68.0

New linecode.5281622H-3P_linecode_media nphases=3 BaseFreq=60
~ r1=0.00131
~ x1=0.00041
~ c1=0
~ Normamps=68.0
~ Emergamps=68.0

New linecode.5281627C-3_linecode_media nphases=3 BaseFreq=60
~ r1=0.000992
~ x1=0.00011700000000000001
~ c1=0
~ Normamps=70.0
~ Emergamps=70.0

New linecode.5281627C-3P_linecode_media nphases=3 BaseFreq=60
~ r1=0.000992
~ x1=0.00011700000000000001
~ c1=0
~ Normamps=70.0
~ Emergamps=70.0

New linecode.5281628C-3_linecode_media nphases=3 BaseFreq=60
~ r1=0.000247
~ x1=0.000259
~ c1=0
~ Normamps=291.0
~ Emergamps=291.0

New linecode.5281631C-3_linecode_media nphases=3 BaseFreq=60
~ r1=0.000739
~ x1=0.000303
~ c1=0
~ Normamps=152.0
~ Emergamps=181.0

New linecode.5281631C-3P_linecode_media nphases=3 BaseFreq=60
~ r1=0.000739
~ x1=0.000303
~ c1=0
~ Normamps=152.0
~ Emergamps=181.0

New linecode.5281632C-3_linecode_media nphases=3 BaseFreq=60
~ r1=0.00019700000000000002
~ x1=0.000251
~ c1=0
~ Normamps=368.0
~ Emergamps=400.0

New Capacitor.1236705_Banco_de_Capacitor Bus1 = 0011236687.1.2.3 kv = 13.800 kVAR = 14 phases = 3 conn = wye

New Capacitor.1236732_Banco_de_Capacitor Bus1 = 0011236715.1.2.3 kv = 13.800 kVAR = 14 phases = 3 conn = wye

New Capacitor.1236761_Banco_de_Capacitor Bus1 = 0011236743.1.2.3 kv = 13.800 kVAR = 14 phases = 3 conn = wye

New Capacitor.1236791_Banco_de_Capacitor Bus1 = 0011236774.1.2.3 kv = 13.800 kVAR = 14 phases = 3 conn = wye

New Capacitor.1236890_Banco_de_Capacitor Bus1 = 0011236822.1.2.3 kv = 13.800 kVAR = 14 phases = 3 conn = wye

New Capacitor.1236893_Banco_de_Capacitor Bus1 = 0011236836.1.2.3 kv = 13.800 kVAR = 14 phases = 3 conn = wye

New Capacitor.1236897_Banco_de_Capacitor Bus1 = 0011236850.1.2.3 kv = 13.800 kVAR = 14 phases = 3 conn = wye

New Capacitor.1236900_Banco_de_Capacitor Bus1 = 0011236864.1.2.3 kv = 13.800 kVAR = 14 phases = 3 conn = wye

New Capacitor.34559532_Banco_de_Capacitor Bus1 = 59818346827373370MT.1.2.3 kv = 13.800 kVAR = 17 phases = 3 conn = wye

New line.1207330_Chave_seccionadora_media_tensao phases = 3 bus1 = 0011207322.1.2.3 bus2 = 0011207330.1.2.3 switch = F

New line.1207338_Chave_seccionadora_media_tensao phases = 3 bus1 = 0011207330.1.2.3 bus2 = 59904014827576618MT.1.2.3 switch = F

New line.5329885_Chave_seccionadora_media_tensao phases = 3 bus1 = 0014431411.1.2.3 bus2 = 0015329885.1.2.3 switch = F

New line.1207322_Chave_seccionadora_media_tensao phases = 3 bus1 = 0015329860.1.2.3 bus2 = 0011207322.1.2.3 switch = F

New line.5329860_Chave_seccionadora_media_tensao phases = 3 bus1 = 0015329872.1.2.3 bus2 = 0015329860.1.2.3 switch = F

New line.5329872_Chave_seccionadora_media_tensao phases = 3 bus1 = 0015329885.1.2.3 bus2 = 0015329872.1.2.3 switch = F

New line.64751677_Chave_seccionadora_media_tensao phases = 3 bus1 = 59802244827366428MT.1.2.3 bus2 = 59802215827366613MT.1.2.3 switch = A

New line.64751595_Chave_seccionadora_media_tensao phases = 3 bus1 = 59802405827366374MT.1.2.3 bus2 = 59802438827366411MT.1.2.3 switch = A

New line.64751691_Chave_seccionadora_media_tensao phases = 3 bus1 = 59802468827366680MT.1.2.3 bus2 = 59802529827366543MT.1.2.3 switch = F

New line.34582369CT_Chave_seccionadora_media_tensao phases = 3 bus1 = 59806782827412746MT.1.2.3 bus2 = 59806782827412746ET.1.2.3 switch = F

New line.34810741CT_Chave_seccionadora_media_tensao phases = 3 bus1 = 59810971827376595MT.1.2.3 bus2 = 59810971827376595ET.1.2.3 switch = F

New line.34670005CT_Chave_seccionadora_media_tensao phases = 3 bus1 = 59812242827401982MT.1.2.3 bus2 = 59812242827401982ET.1.2.3 switch = F

New line.64751679_Chave_seccionadora_media_tensao phases = 3 bus1 = 59813005827378968MT.1.2.3 bus2 = 59812907827378854MT.1.2.3 switch = F

New line.64751685_Chave_seccionadora_media_tensao phases = 3 bus1 = 59816303827375831MT.1.2.3 bus2 = 59816452827375817MT.1.2.3 switch = F

New line.64751594_Chave_seccionadora_media_tensao phases = 3 bus1 = 59816452827375817MT.1.2.3 bus2 = 59816563827375655MT.1.2.3 switch = F

New line.64751686_Chave_seccionadora_media_tensao phases = 3 bus1 = 59816563827375655MT.1.2.3 bus2 = 59816584827375568MT.1.2.3 switch = F

New line.64751673_Chave_seccionadora_media_tensao phases = 3 bus1 = 59816721827376234MT.1.2.3 bus2 = 59816797827376105MT.1.2.3 switch = A

New line.34665109CT_Chave_seccionadora_media_tensao phases = 3 bus1 = 59816839827370835MT.1.2.3 bus2 = 59816839827370835ET.1.2.3 switch = F

New line.34700631CT_Chave_seccionadora_media_tensao phases = 3 bus1 = 59817165827402679MT.1.2.3 bus2 = 59817165827402679ET.1.2.3 switch = F

New line.64709882_Chave_seccionadora_media_tensao phases = 3 bus1 = 59817405827374681MT.1.2.3 bus2 = 59817324827374555MT.1.2.3 switch = F

New line.34736980CT_Chave_seccionadora_media_tensao phases = 3 bus1 = 59817684827436747MT.1.2.3 bus2 = 59817684827436747ET.1.2.3 switch = F

New line.34790629CT_Chave_seccionadora_media_tensao phases = 3 bus1 = 59818006827434500MT.1.2.3 bus2 = 59818006827434500ET.1.2.3 switch = F

New line.64751676_Chave_seccionadora_media_tensao phases = 3 bus1 = 59818654827452423MT.1.2.3 bus2 = 59818548827452529MT.1.2.3 switch = A

New line.64659095_Chave_seccionadora_media_tensao phases = 3 bus1 = 59818869827435613MT.1.2.3 bus2 = 59818777827435494MT.1.2.3 switch = F

New line.34703389CT_Chave_seccionadora_media_tensao phases = 3 bus1 = 59820143827387423MT.1.2.3 bus2 = 59820143827387423ET.1.2.3 switch = F

New line.64659094_Chave_seccionadora_media_tensao phases = 3 bus1 = 59820226827434369MT.1.2.3 bus2 = 59820321827434485MT.1.2.3 switch = F

New line.64751674_Chave_seccionadora_media_tensao phases = 3 bus1 = 59820247827356982MT.1.2.3 bus2 = 59820112827356912MT.1.2.3 switch = A

New line.64751592_Chave_seccionadora_media_tensao phases = 3 bus1 = 59820391827356704MT.1.2.3 bus2 = 59820266827356617MT.1.2.3 switch = A

New line.34702388CT_Chave_seccionadora_media_tensao phases = 3 bus1 = 59820413827410398MT.1.2.3 bus2 = 59820413827410398ET.1.2.3 switch = F

New line.64751687_Chave_seccionadora_media_tensao phases = 3 bus1 = 59820415827356895MT.1.2.3 bus2 = 59820396827356746MT.1.2.3 switch = F

New line.34680900CT_Chave_seccionadora_media_tensao phases = 3 bus1 = 59820953827435264MT.1.2.3 bus2 = 59820953827435264ET.1.2.3 switch = F

New line.64659093_Chave_seccionadora_media_tensao phases = 3 bus1 = 59821594827371891MT.1.2.3 bus2 = 59821677827372016MT.1.2.3 switch = F

New line.34708044CT_Chave_seccionadora_media_tensao phases = 3 bus1 = 59821662827450099MT.1.2.3 bus2 = 59821662827450099ET.1.2.3 switch = F

New line.64751690_Chave_seccionadora_media_tensao phases = 3 bus1 = 59822916827449003MT.1.2.3 bus2 = 59822840827448873MT.1.2.3 switch = F

New line.64709881_Chave_seccionadora_media_tensao phases = 3 bus1 = 59823298827431836MT.1.2.3 bus2 = 59823408827431938MT.1.2.3 switch = F

New line.34786271CT_Chave_seccionadora_media_tensao phases = 3 bus1 = 59823498827452473MT.1.2.3 bus2 = 59823498827452473ET.1.2.3 switch = F

New line.34802486CT_Chave_seccionadora_media_tensao phases = 3 bus1 = 59824409827375917MT.1.2.3 bus2 = 59824409827375917ET.1.2.3 switch = F

New line.34747387CT_Chave_seccionadora_media_tensao phases = 3 bus1 = 59824848827446671MT.1.2.3 bus2 = 59824848827446671ET.1.2.3 switch = F

New line.34710896CT_Chave_seccionadora_media_tensao phases = 3 bus1 = 59825059827360320MT.1.2.3 bus2 = 59825059827360320ET.1.2.3 switch = F

New line.64670650_Chave_seccionadora_media_tensao phases = 3 bus1 = 59825169827359492MT.1.2.3 bus2 = 59825149827359641MT.1.2.3 switch = F

New line.34681522CT_Chave_seccionadora_media_tensao phases = 3 bus1 = 59827116827363936MT.1.2.3 bus2 = 59827116827363936ET.1.2.3 switch = F

New line.34734408CT_Chave_seccionadora_media_tensao phases = 3 bus1 = 59827132827444835MT.1.2.3 bus2 = 59827132827444835ET.1.2.3 switch = F

New line.64689980_Chave_seccionadora_media_tensao phases = 3 bus1 = 59827235827397137MT.1.2.3 bus2 = 59827115827397227MT.1.2.3 switch = F

New line.34685509CT_Chave_seccionadora_media_tensao phases = 3 bus1 = 59828247827448172MT.1.2.3 bus2 = 59828247827448172ET.1.2.3 switch = F

New line.64751678_Chave_seccionadora_media_tensao phases = 3 bus1 = 59828903827443529MT.1.2.3 bus2 = 59828782827443618MT.1.2.3 switch = F

New line.88108639CT_Chave_seccionadora_media_tensao phases = 3 bus1 = 59829142827389691MT.1.2.3 bus2 = 59829142827389691ET.1.2.3 switch = F

New line.34608978CT_Chave_seccionadora_media_tensao phases = 3 bus1 = 59829706827442810MT.1.2.3 bus2 = 59829706827442810ET.1.2.3 switch = F

New line.34654363CT_Chave_seccionadora_media_tensao phases = 3 bus1 = 59829717827468095MT.1.2.3 bus2 = 59829717827468095ET.1.2.3 switch = F

New line.64689979_Chave_seccionadora_media_tensao phases = 3 bus1 = 59830114827399980MT.1.2.3 bus2 = 59830011827400089MT.1.2.3 switch = F

New line.64687649_Chave_seccionadora_media_tensao phases = 3 bus1 = 59830503827425372MT.1.2.3 bus2 = 59830606827425481MT.1.2.3 switch = F

New line.64689984_Chave_seccionadora_media_tensao phases = 3 bus1 = 59830509827446212MT.1.2.3 bus2 = 59830423827446335MT.1.2.3 switch = F

New line.64689982_Chave_seccionadora_media_tensao phases = 3 bus1 = 59830624827360861MT.1.2.3 bus2 = 59830754827360936MT.1.2.3 switch = F

New line.64689981_Chave_seccionadora_media_tensao phases = 3 bus1 = 59831129827394985MT.1.2.3 bus2 = 59831244827394889MT.1.2.3 switch = F

New line.34577113CT_Chave_seccionadora_media_tensao phases = 3 bus1 = 59831169827357397MT.1.2.3 bus2 = 59831169827357397ET.1.2.3 switch = F

New line.34724728CT_Chave_seccionadora_media_tensao phases = 3 bus1 = 59831430827441297MT.1.2.3 bus2 = 59831430827441297ET.1.2.3 switch = F

New line.64751689_Chave_seccionadora_media_tensao phases = 3 bus1 = 59831734827353647MT.1.2.3 bus2 = 59831854827353737MT.1.2.3 switch = F

New line.34685510CT_Chave_seccionadora_media_tensao phases = 3 bus1 = 59832692827443724MT.1.2.3 bus2 = 59832692827443724ET.1.2.3 switch = F

New line.34648645CT_Chave_seccionadora_media_tensao phases = 3 bus1 = 59832979827378654MT.1.2.3 bus2 = 59832979827378654ET.1.2.3 switch = F

New line.64705352_Chave_seccionadora_media_tensao phases = 3 bus1 = 59833767827351593MT.1.2.3 bus2 = 59833821827351453MT.1.2.3 switch = F

New line.64705350_Chave_seccionadora_media_tensao phases = 3 bus1 = 59833775827355332MT.1.2.3 bus2 = 59833906827355406MT.1.2.3 switch = F

New line.34755505CT_Chave_seccionadora_media_tensao phases = 3 bus1 = 59833972827375170MT.1.2.3 bus2 = 59833972827375170ET.1.2.3 switch = F

New line.64670648_Chave_seccionadora_media_tensao phases = 3 bus1 = 59834066827376352MT.1.2.3 bus2 = 59834054827376202MT.1.2.3 switch = F

New line.34573464CT_Chave_seccionadora_media_tensao phases = 3 bus1 = 59834100827350734MT.1.2.3 bus2 = 59834100827350734ET.1.2.3 switch = F

New line.34641747CT_Chave_seccionadora_media_tensao phases = 3 bus1 = 59834644827438399MT.1.2.3 bus2 = 59834644827438399ET.1.2.3 switch = F

New line.34627372CT_Chave_seccionadora_media_tensao phases = 3 bus1 = 59835216827403383MT.1.2.3 bus2 = 59835216827403383ET.1.2.3 switch = F

New line.64740223_Chave_seccionadora_media_tensao phases = 3 bus1 = 59835766827437178MT.1.2.3 bus2 = 59835699827437044MT.1.2.3 switch = F

New line.34703352CT_Chave_seccionadora_media_tensao phases = 3 bus1 = 59835798827462585MT.1.2.3 bus2 = 59835798827462585ET.1.2.3 switch = F

New line.93252836CT_Chave_seccionadora_media_tensao phases = 3 bus1 = 59836244827457304MT.1.2.3 bus2 = 59836244827457304ET.1.2.3 switch = F

New line.34640756CT_Chave_seccionadora_media_tensao phases = 3 bus1 = 59836440827378773MT.1.2.3 bus2 = 59836440827378773ET.1.2.3 switch = F

New line.34573975CT_Chave_seccionadora_media_tensao phases = 3 bus1 = 59837115827364440MT.1.2.3 bus2 = 59837115827364440ET.1.2.3 switch = F

New line.34768152CT_Chave_seccionadora_media_tensao phases = 3 bus1 = 59838070827388336MT.1.2.3 bus2 = 59838070827388336ET.1.2.3 switch = F

New line.64751682_Chave_seccionadora_media_tensao phases = 3 bus1 = 59838219827438793MT.1.2.3 bus2 = 59838105827438890MT.1.2.3 switch = F

New line.34714989CT_Chave_seccionadora_media_tensao phases = 3 bus1 = 59838844827340340MT.1.2.3 bus2 = 59838844827340340ET.1.2.3 switch = F

New line.64740225_Chave_seccionadora_media_tensao phases = 3 bus1 = 59839035827434346MT.1.2.3 bus2 = 59839025827434196MT.1.2.3 switch = F

New line.64705351_Chave_seccionadora_media_tensao phases = 3 bus1 = 59839902827355427MT.1.2.3 bus2 = 59839973827355295MT.1.2.3 switch = F

New line.64751683_Chave_seccionadora_media_tensao phases = 3 bus1 = 59840163827408549MT.1.2.3 bus2 = 59840060827408440MT.1.2.3 switch = F

New line.64706476_Chave_seccionadora_media_tensao phases = 3 bus1 = 59840901827383095MT.1.2.3 bus2 = 59841020827383003MT.1.2.3 switch = F

New line.64689978_Chave_seccionadora_media_tensao phases = 3 bus1 = 59841259827436169MT.1.2.3 bus2 = 59841371827436069MT.1.2.3 switch = F

New line.64751681_Chave_seccionadora_media_tensao phases = 3 bus1 = 59842648827438541MT.1.2.3 bus2 = 59842552827438426MT.1.2.3 switch = F

New line.34682106CT_Chave_seccionadora_media_tensao phases = 3 bus1 = 59843571827455543MT.1.2.3 bus2 = 59843571827455543ET.1.2.3 switch = F

New line.64687648_Chave_seccionadora_media_tensao phases = 3 bus1 = 59844987827360146MT.1.2.3 bus2 = 59845083827360031MT.1.2.3 switch = F

New line.64709804_Chave_seccionadora_media_tensao phases = 3 bus1 = 59845939827442113MT.1.2.3 bus2 = 59845816827442199MT.1.2.3 switch = F

New line.34651824CT_Chave_seccionadora_media_tensao phases = 3 bus1 = 59847124827471117MT.1.2.3 bus2 = 59847124827471117ET.1.2.3 switch = F

New line.34630189CT_Chave_seccionadora_media_tensao phases = 3 bus1 = 59847272827346484MT.1.2.3 bus2 = 59847272827346484ET.1.2.3 switch = F

New line.34709770CT_Chave_seccionadora_media_tensao phases = 3 bus1 = 59848268827460601MT.1.2.3 bus2 = 59848268827460601ET.1.2.3 switch = F

New line.64670651_Chave_seccionadora_media_tensao phases = 3 bus1 = 59848981827378982MT.1.2.3 bus2 = 59849087827378876MT.1.2.3 switch = F

New line.34733464CT_Chave_seccionadora_media_tensao phases = 3 bus1 = 59849662827378302MT.1.2.3 bus2 = 59849662827378302ET.1.2.3 switch = F

New line.34675556CT_Chave_seccionadora_media_tensao phases = 3 bus1 = 59850552827447112MT.1.2.3 bus2 = 59850552827447112ET.1.2.3 switch = F

New line.34632356CT_Chave_seccionadora_media_tensao phases = 3 bus1 = 59851888827351241MT.1.2.3 bus2 = 59851888827351241ET.1.2.3 switch = F

New line.64704362_Chave_seccionadora_media_tensao phases = 3 bus1 = 59851922827354912MT.1.2.3 bus2 = 59851775827354940MT.1.2.3 switch = F

New line.34691991CT_Chave_seccionadora_media_tensao phases = 3 bus1 = 59852609827449509MT.1.2.3 bus2 = 59852609827449509ET.1.2.3 switch = F

New line.34591502CT_Chave_seccionadora_media_tensao phases = 3 bus1 = 59853051827365553MT.1.2.3 bus2 = 59853051827365553ET.1.2.3 switch = F

New line.34703392CT_Chave_seccionadora_media_tensao phases = 3 bus1 = 59853141827322292MT.1.2.3 bus2 = 59853141827322292ET.1.2.3 switch = F

New line.34702387CT_Chave_seccionadora_media_tensao phases = 3 bus1 = 59853800827451179MT.1.2.3 bus2 = 59853800827451179ET.1.2.3 switch = F

New line.34670007CT_Chave_seccionadora_media_tensao phases = 3 bus1 = 59855007827330753MT.1.2.3 bus2 = 59855007827330753ET.1.2.3 switch = F

New line.34666478CT_Chave_seccionadora_media_tensao phases = 3 bus1 = 59855904827461832MT.1.2.3 bus2 = 59855904827461832ET.1.2.3 switch = F

New line.64689985_Chave_seccionadora_media_tensao phases = 3 bus1 = 59856473827453966MT.1.2.3 bus2 = 59856445827453819MT.1.2.3 switch = F

New line.34629109CT_Chave_seccionadora_media_tensao phases = 3 bus1 = 59856838827454281MT.1.2.3 bus2 = 59856838827454281ET.1.2.3 switch = F

New line.64689986_Chave_seccionadora_media_tensao phases = 3 bus1 = 59857275827454769MT.1.2.3 bus2 = 59857237827454914MT.1.2.3 switch = F

New line.34628497CT_Chave_seccionadora_media_tensao phases = 3 bus1 = 59859142827356250MT.1.2.3 bus2 = 59859142827356250ET.1.2.3 switch = F

New line.34634929CT_Chave_seccionadora_media_tensao phases = 3 bus1 = 59859678827445111MT.1.2.3 bus2 = 59859678827445111ET.1.2.3 switch = F

New line.64689983_Chave_seccionadora_media_tensao phases = 3 bus1 = 59859723827322565MT.1.2.3 bus2 = 59859607827322470MT.1.2.3 switch = F

New line.34675557CT_Chave_seccionadora_media_tensao phases = 3 bus1 = 59860027827457816MT.1.2.3 bus2 = 59860027827457816ET.1.2.3 switch = F

New line.34786270CT_Chave_seccionadora_media_tensao phases = 3 bus1 = 59860781827446299MT.1.2.3 bus2 = 59860781827446299ET.1.2.3 switch = F

New line.34780759CT_Chave_seccionadora_media_tensao phases = 3 bus1 = 59861220827488445MT.1.2.3 bus2 = 59861220827488445ET.1.2.3 switch = F

New line.34722445CT_Chave_seccionadora_media_tensao phases = 3 bus1 = 59862248827322652MT.1.2.3 bus2 = 59862248827322652ET.1.2.3 switch = F

New line.34613763CT_Chave_seccionadora_media_tensao phases = 3 bus1 = 59862698827305726MT.1.2.3 bus2 = 59862698827305726ET.1.2.3 switch = F

New line.34622628CT_Chave_seccionadora_media_tensao phases = 3 bus1 = 59863408827449116MT.1.2.3 bus2 = 59863408827449116ET.1.2.3 switch = F

New line.34609977CT_Chave_seccionadora_media_tensao phases = 3 bus1 = 59864800827329702MT.1.2.3 bus2 = 59864800827329702ET.1.2.3 switch = F

New line.34636847CT_Chave_seccionadora_media_tensao phases = 3 bus1 = 59865762827294149MT.1.2.3 bus2 = 59865762827294149ET.1.2.3 switch = F

New line.34774244CT_Chave_seccionadora_media_tensao phases = 3 bus1 = 59865920827476103MT.1.2.3 bus2 = 59865920827476103ET.1.2.3 switch = F

New line.34633969CT_Chave_seccionadora_media_tensao phases = 3 bus1 = 59866408827452735MT.1.2.3 bus2 = 59866408827452735ET.1.2.3 switch = F

New line.64751680_Chave_seccionadora_media_tensao phases = 3 bus1 = 59866599827461721MT.1.2.3 bus2 = 59866698827461609MT.1.2.3 switch = F

New line.34755152CT_Chave_seccionadora_media_tensao phases = 3 bus1 = 59866966827286978MT.1.2.3 bus2 = 59866966827286978ET.1.2.3 switch = F

New line.64709880_Chave_seccionadora_media_tensao phases = 3 bus1 = 59867737827465340MT.1.2.3 bus2 = 59867619827465432MT.1.2.3 switch = F

New line.64740226_Chave_seccionadora_media_tensao phases = 3 bus1 = 59868463827284110MT.1.2.3 bus2 = 59868582827284202MT.1.2.3 switch = F

New line.64659090_Chave_seccionadora_media_tensao phases = 3 bus1 = 59868624827295210MT.1.2.3 bus2 = 59868519827295317MT.1.2.3 switch = F

New line.34570130CT_Chave_seccionadora_media_tensao phases = 3 bus1 = 59869143827309778MT.1.2.3 bus2 = 59869143827309778ET.1.2.3 switch = F

New line.34801742CT_Chave_seccionadora_media_tensao phases = 3 bus1 = 59869874827458012MT.1.2.3 bus2 = 59869874827458012ET.1.2.3 switch = F

New line.34732115CT_Chave_seccionadora_media_tensao phases = 3 bus1 = 59871354827454820MT.1.2.3 bus2 = 59871354827454820ET.1.2.3 switch = F

New line.64689977_Chave_seccionadora_media_tensao phases = 3 bus1 = 59871786827467280MT.1.2.3 bus2 = 59871691827467396MT.1.2.3 switch = F

New line.34737790CT_Chave_seccionadora_media_tensao phases = 3 bus1 = 59874584827306092MT.1.2.3 bus2 = 59874584827306092ET.1.2.3 switch = F

New line.34770523CT_Chave_seccionadora_media_tensao phases = 3 bus1 = 59875009827318466MT.1.2.3 bus2 = 59875009827318466ET.1.2.3 switch = F

New line.64670652_Chave_seccionadora_media_tensao phases = 3 bus1 = 59877850827454244MT.1.2.3 bus2 = 59877974827454159MT.1.2.3 switch = F

New line.34611765CT_Chave_seccionadora_media_tensao phases = 3 bus1 = 59878986827453464MT.1.2.3 bus2 = 59878986827453464ET.1.2.3 switch = F

New line.34678710CT_Chave_seccionadora_media_tensao phases = 3 bus1 = 59879140827487897MT.1.2.3 bus2 = 59879140827487897ET.1.2.3 switch = F

New line.64702973_Chave_seccionadora_media_tensao phases = 3 bus1 = 59879888827308439MT.1.2.3 bus2 = 59879830827308577MT.1.2.3 switch = F

New line.64740222_Chave_seccionadora_media_tensao phases = 3 bus1 = 59880949827479168MT.1.2.3 bus2 = 59881098827479149MT.1.2.3 switch = F

New line.34651828CT_Chave_seccionadora_media_tensao phases = 3 bus1 = 59881167827319813MT.1.2.3 bus2 = 59881167827319813ET.1.2.3 switch = F

New line.34715142CT_Chave_seccionadora_media_tensao phases = 3 bus1 = 59881546827473576MT.1.2.3 bus2 = 59881546827473576ET.1.2.3 switch = F

New line.64702974_Chave_seccionadora_media_tensao phases = 3 bus1 = 59881617827470823MT.1.2.3 bus2 = 59881723827470717MT.1.2.3 switch = F

New line.34656591CT_Chave_seccionadora_media_tensao phases = 3 bus1 = 59882294827320030MT.1.2.3 bus2 = 59882294827320030ET.1.2.3 switch = F

New line.34656586CT_Chave_seccionadora_media_tensao phases = 3 bus1 = 59883846827539687MT.1.2.3 bus2 = 59883846827539687ET.1.2.3 switch = F

New line.34669303CT_Chave_seccionadora_media_tensao phases = 3 bus1 = 59884447827467982MT.1.2.3 bus2 = 59884447827467982ET.1.2.3 switch = F

New line.64679417_Chave_seccionadora_media_tensao phases = 3 bus1 = 59884881827475296MT.1.2.3 bus2 = 59884810827475428MT.1.2.3 switch = F

New line.64670649_Chave_seccionadora_media_tensao phases = 3 bus1 = 59885596827466696MT.1.2.3 bus2 = 59885738827466745MT.1.2.3 switch = F

New line.34790147CT_Chave_seccionadora_media_tensao phases = 3 bus1 = 59885633827476980MT.1.2.3 bus2 = 59885633827476980ET.1.2.3 switch = F

New line.64751672_Chave_seccionadora_media_tensao phases = 3 bus1 = 59886003827533655MT.1.2.3 bus2 = 59886302827533714MT.1.2.3 switch = A

New line.34660149CT_Chave_seccionadora_media_tensao phases = 3 bus1 = 59886166827312782MT.1.2.3 bus2 = 59886166827312782ET.1.2.3 switch = F

New line.34701103CT_Chave_seccionadora_media_tensao phases = 3 bus1 = 59886816827510034MT.1.2.3 bus2 = 59886816827510034ET.1.2.3 switch = F

New line.64659091_Chave_seccionadora_media_tensao phases = 3 bus1 = 59887031827308834MT.1.2.3 bus2 = 59887175827308791MT.1.2.3 switch = F

New line.34738068CT_Chave_seccionadora_media_tensao phases = 3 bus1 = 59887338827307570MT.1.2.3 bus2 = 59887338827307570ET.1.2.3 switch = F

New line.34669828CT_Chave_seccionadora_media_tensao phases = 3 bus1 = 59888308827478002MT.1.2.3 bus2 = 59888308827478002ET.1.2.3 switch = F

New line.64697769_Chave_seccionadora_media_tensao phases = 3 bus1 = 59889803827472568MT.1.2.3 bus2 = 59889912827472672MT.1.2.3 switch = F

New line.34723057CT_Chave_seccionadora_media_tensao phases = 3 bus1 = 59890397827472156MT.1.2.3 bus2 = 59890397827472156ET.1.2.3 switch = F

New line.34679627CT_Chave_seccionadora_media_tensao phases = 3 bus1 = 59890510827473242MT.1.2.3 bus2 = 59890510827473242ET.1.2.3 switch = F

New line.64740224_Chave_seccionadora_media_tensao phases = 3 bus1 = 59891696827471066MT.1.2.3 bus2 = 59891807827471167MT.1.2.3 switch = F

New line.64659092_Chave_seccionadora_media_tensao phases = 3 bus1 = 59891838827520504MT.1.2.3 bus2 = 59891782827520365MT.1.2.3 switch = F

New line.64751684_Chave_seccionadora_media_tensao phases = 3 bus1 = 59893250827516491MT.1.2.3 bus2 = 59893242827516341MT.1.2.3 switch = F

New line.34594702CT_Chave_seccionadora_media_tensao phases = 3 bus1 = 59894232827510736MT.1.2.3 bus2 = 59894232827510736ET.1.2.3 switch = F

New line.34621072CT_Chave_seccionadora_media_tensao phases = 3 bus1 = 59897598827483570MT.1.2.3 bus2 = 59897598827483570ET.1.2.3 switch = F

New line.64751688_Chave_seccionadora_media_tensao phases = 3 bus1 = 59899237827510258MT.1.2.3 bus2 = 59899267827510405MT.1.2.3 switch = F

New line.1207346_Chave_seccionadora_media_tensao phases = 3 bus1 = 59904014827576618MT.1.2.3 bus2 = 0011207346.1.2.3 switch = A

New line.64751692_Chave_seccionadora_media_tensao phases = 3 bus1 = 59905705827568463MT.1.2.3 bus2 = 59905702827568313MT.1.2.3 switch = F

New line.64751597_Chave_seccionadora_media_tensao phases = 3 bus1 = 59908602827568737MT.1.2.3 bus2 = 59908744827568785MT.1.2.3 switch = A

New Load.nome_001bbc748366ac4e85107279fdcbbd82db4fbc068e014e29472b6a7d8aeb55ae_curva_diaria_RES-Tipo1_curva_anual_0.62_0.51_0.64_0.59_0.55_0.34_0.46_0.93_0.96_1.37_1.01_1.03_carga_baixa Bus1=59842440827455724BT.1.2 Phases=2
~ Conn=wye Model=1 Kv=0.22 Kw=1 pf=0.92

New Load.nome_005063e8fbef221135084812f2734a89489b7a52591bfc92bcbb28194e588e0e_curva_diaria_RES-Tipo6_curva_anual_0.22_0.41_0.77_0.67_0.65_0.3_0.12_0.17_0.19_0.0_0.0_0.16_carga_baixa Bus1=59808290827458904BT.1.2.3 Phases=3
~ Conn=wye Model=1 Kv=0.22 Kw=1 pf=0.92

New Load.nome_00742a2106e6be4a28bfafb5112686bd6f8fd27f80f40ff41ee3cdad8da91e60_curva_diaria_COM-Tipo5_curva_anual_0.1_0.13_0.16_0.14_0.13_0.1_0.13_0.27_0.31_0.53_0.27_0.12_carga_baixa Bus1=59833749827365268BT.1.2 Phases=2
~ Conn=wye Model=1 Kv=0.22 Kw=1 pf=0.92

New Load.nome_0084affe855708922cdd213a9fefa054cdc6faa6078f74efcc407bb6f9084198_curva_diaria_RES-Tipo6_curva_anual_0.65_0.59_0.79_0.76_0.81_0.59_0.74_1.07_0.86_1.02_0.0_0.0_carga_baixa Bus1=59861289827457904BT.1.2 Phases=2
~ Conn=wye Model=1 Kv=0.22 Kw=1 pf=0.92

New Load.nome_00900c72a4a0d0329f064049e12d4960d6b1e536eaaa11ffadf3c99b82ee4016_curva_diaria_IND-Tipo8_curva_anual_0.89_0.63_0.66_0.44_0.19_0.07_0.11_0.0_1.56_2.05_1.22_0.95_carga_baixa Bus1=59830493827354161BT.1.2.3 Phases=3
~ Conn=wye Model=1 Kv=0.22 Kw=1 pf=0.92

New Load.nome_009bab79a31551da6d5c7962a79e82b119f1366509006318af437fa197275314_curva_diaria_IND-Tipo5_curva_anual_0.46_0.54_0.7_0.64_0.61_0.43_0.47_0.82_0.88_1.35_0.94_0.77_carga_baixa Bus1=59845835827451998BT.2.3 Phases=2
~ Conn=wye Model=1 Kv=0.22 Kw=1 pf=0.92

New Load.nome_009fb4678dce62c307ec9408305e70de406adf164990f33f8158cee76453b052_curva_diaria_COM-Tipo5_curva_anual_1.26_1.08_1.36_1.11_0.92_0.63_0.78_1.53_2.13_3.24_2.17_1.75_carga_baixa Bus1=59852531827322501BT.1.2 Phases=2
~ Conn=wye Model=1 Kv=0.22 Kw=1 pf=0.92

New Load.nome_00b503b451adacc66ae5d90ec5ec48d1a6c266563a27d2eb1a5da6c46d8c0e18_curva_diaria_COM-Tipo9_curva_anual_0.11_0.1_0.06_0.0_0.12_0.0_0.23_0.15_0.37_1.32_0.94_0.92_carga_baixa Bus1=59838741827344416BT.1.2.3 Phases=3
~ Conn=wye Model=1 Kv=0.22 Kw=1 pf=0.92

New Load.nome_00fa771e0c4845fcf1c69bea868462c8c482c5477f1f7b4534aa66670857a848_curva_diaria_RES-Tipo10_curva_anual_0.0_0.0_0.0_0.0_0.0_0.0_0.0_0.0_0.0_0.0_0.0_0.68_carga_baixa Bus1=59818898827436374BT.1.2.3 Phases=3
~ Conn=wye Model=1 Kv=0.22 Kw=1 pf=0.92

New Load.nome_0100f907d3674828fdf7b764f4f7d50e757e03026e4e7eb0ab845aac93da5b97_curva_diaria_RES-Tipo9_curva_anual_0.49_0.0_1.21_0.77_0.55_0.58_0.68_0.87_1.3_3.26_1.68_1.34_carga_baixa Bus1=59857862827315766BT.1.2.3 Phases=3
~ Conn=wye Model=1 Kv=0.22 Kw=1 pf=0.92

New Load.nome_011fd886ccd170f443f7337a552e5e02780639dff81b9e50d095274e679a1c33_curva_diaria_COM-Tipo5_curva_anual_5.79_4.64_5.73_5.21_5.47_4.32_4.82_7.89_8.43_12.85_8.25_7.2_carga_baixa Bus1=59827748827359779BT.1.2.3 Phases=3
~ Conn=wye Model=1 Kv=0.22 Kw=1 pf=0.92

New Load.nome_0123c15b72a3ca99216c508e15c4cac645d4fd3ef697a30fa54c25f953414f2a_curva_diaria_RES-Tipo1_curva_anual_0.73_1.06_1.64_0.94_0.9_0.82_0.12_0.68_1.78_2.26_4.57_2.56_carga_baixa Bus1=59867416827331065BT.1.3 Phases=2
~ Conn=wye Model=1 Kv=0.22 Kw=1 pf=0.92

New Load.nome_0127d049d107b35c53a7bf44a5739cd8910206846d73360ea093ef0f49ce99a1_curva_diaria_COM-Tipo1_curva_anual_3.85_7.37_10.35_9.8_9.89_6.25_7.25_15.11_17.54_28.42_17.11_9.08_carga_baixa Bus1=59852208827347190BT.1.2.3 Phases=3
~ Conn=wye Model=1 Kv=0.22 Kw=1 pf=0.92

New Load.nome_01331eae097f0564014c757045eedcc79569b457336f92ca0b8b334004e86f63_curva_diaria_COM-Tipo1_curva_anual_2.41_2.08_2.84_2.84_2.47_1.35_0.83_1.65_2.34_3.21_1.85_1.42_carga_baixa Bus1=59839257827393450BT.1.2.3 Phases=3
~ Conn=wye Model=1 Kv=0.22 Kw=1 pf=0.92

New Load.nome_017dffea32a65888e9b2f16e29ed82d7f8cb5c3c0afb0ab2cbcc1c7ced58b4f4_curva_diaria_IND-Tipo4_curva_anual_0.9_0.67_0.84_0.83_0.81_0.64_0.86_1.46_1.62_2.66_1.7_1.48_carga_baixa Bus1=59879690827487300BT.1.2 Phases=2
~ Conn=wye Model=1 Kv=0.22 Kw=1 pf=0.92

New Load.nome_0188883faf1020f5a0a72a4ac93a6506164f1b0ce814c2c2ec11dda74f93936e_curva_diaria_RES-Tipo7_curva_anual_0.81_1.97_0.28_0.71_1.7_1.95_0.27_1.59_4.19_3.56_5.32_4.21_carga_baixa Bus1=59812726827399714BT.1.2.3 Phases=3
~ Conn=wye Model=1 Kv=0.22 Kw=1 pf=0.92

New Load.nome_01a203fc390dbbc5f207f6fdfefa53318e4c2c58fc5726c2c93bf2c54536f08e_curva_diaria_RES-Tipo10_curva_anual_0.46_0.35_0.45_0.4_0.39_0.25_0.11_0.08_0.0_1.02_0.64_0.03_carga_baixa Bus1=59848699827378549BT.1.3 Phases=2
~ Conn=wye Model=1 Kv=0.22 Kw=1 pf=0.92

New Load.nome_01ad44ba1e9242904e66530d10d37b73f8ecef890e4c187814616cd205686c74_curva_diaria_RES-Tipo8_curva_anual_0.37_0.18_0.02_0.0_0.38_0.26_0.58_1.44_1.78_2.9_1.72_1.14_carga_baixa Bus1=59863406827455188BT.1.2 Phases=2
~ Conn=wye Model=1 Kv=0.22 Kw=1 pf=0.92

New Load.nome_01e48dbd849a36d3b6cd7c292f62b242076761e1128a6df87561572180a0174f_curva_diaria_RES-Tipo1_curva_anual_1.01_0.86_1.05_0.9_0.63_0.24_0.79_1.78_2.34_1.31_0.75_2.24_carga_baixa Bus1=59853604827339422BT.2.3 Phases=2
~ Conn=wye Model=1 Kv=0.22 Kw=1 pf=0.92

New Load.nome_01e7ddc99dc27a0ac6dd09a905691fb30201c752902773e1d6ad01a8cbba2231_curva_diaria_RES-Tipo8_curva_anual_0.79_0.71_0.86_0.47_1.04_0.62_0.86_1.6_2.15_3.59_2.19_1.73_carga_baixa Bus1=59885136827477109BT.1.2.3 Phases=3
~ Conn=wye Model=1 Kv=0.22 Kw=1 pf=0.92
