New Object = Circuit.001002_Barra_Slack
~ basekv = 13.8 pu = 1.029 angle = 0
New line.001002001002 phases = 3 bus1 = SourceBus bus2 = 59904185827576240MT.1.2.3 switch = y

New linecode.16512325H-3_linecode_media nphases=3 BaseFreq=60
~ r1=0.0006129999999999999
~ x1=0.00033
~ c1=0
~ Normamps=235.0
~ Emergamps=329.0

New linecode.16512325H-3P_linecode_media nphases=3 BaseFreq=60
~ r1=0.0006129999999999999
~ x1=0.00033
~ c1=0
~ Normamps=235.0
~ Emergamps=329.0

New linecode.16512328H-3_linecode_media nphases=3 BaseFreq=60
~ r1=0.000306
~ x1=0.00038500000000000003
~ c1=0
~ Normamps=365.0
~ Emergamps=511.0

New linecode.16512329H-3_linecode_media nphases=3 BaseFreq=60
~ r1=0.000975
~ x1=0.000347
~ c1=0
~ Normamps=175.0
~ Emergamps=245.0

New linecode.16512329H-3P_linecode_media nphases=3 BaseFreq=60
~ r1=0.000975
~ x1=0.000347
~ c1=0
~ Normamps=175.0
~ Emergamps=245.0

New linecode.16512375H-3_linecode_media nphases=3 BaseFreq=60
~ r1=0.000195
~ x1=0.00029099999999999997
~ c1=0
~ Normamps=495.0
~ Emergamps=693.0

New linecode.5281622H-3P_linecode_media nphases=3 BaseFreq=60
~ r1=0.00131
~ x1=0.00041
~ c1=0
~ Normamps=68.0
~ Emergamps=68.0

New linecode.5281627C-3_linecode_media nphases=3 BaseFreq=60
~ r1=0.000992
~ x1=0.00011700000000000001
~ c1=0
~ Normamps=70.0
~ Emergamps=70.0

New linecode.5281627C-3P_linecode_media nphases=3 BaseFreq=60
~ r1=0.000992
~ x1=0.00011700000000000001
~ c1=0
~ Normamps=70.0
~ Emergamps=70.0

New linecode.5281628C-3_linecode_media nphases=3 BaseFreq=60
~ r1=0.000247
~ x1=0.000259
~ c1=0
~ Normamps=291.0
~ Emergamps=291.0

New linecode.5281631C-3_linecode_media nphases=3 BaseFreq=60
~ r1=0.000739
~ x1=0.000303
~ c1=0
~ Normamps=152.0
~ Emergamps=181.0

New linecode.5281632C-3_linecode_media nphases=3 BaseFreq=60
~ r1=0.00019700000000000002
~ x1=0.000251
~ c1=0
~ Normamps=368.0
~ Emergamps=400.0

New Capacitor.34559319_Banco_de_Capacitor Bus1 = 59715864827499662MT.1.3 kv = 13.800 kVAR = 17 phases = 2 conn = wye

New line.1207380_Chave_seccionadora_media_tensao phases = 3 bus1 = 0011207356.1.2.3 bus2 = 0011207380.1.2.3 switch = F

New line.1207364_Chave_seccionadora_media_tensao phases = 3 bus1 = 0011207380.1.2.3 bus2 = 59904185827576240MT.1.2.3 switch = F

New line.1207356_Chave_seccionadora_media_tensao phases = 3 bus1 = 0015329860.1.2.3 bus2 = 0011207356.1.2.3 switch = F

New line.64751776_Chave_seccionadora_media_tensao phases = 3 bus1 = 59697771827497267MT.1.2.3 bus2 = 59697846827497137MT.1.2.3 switch = A

New line.64751782_Chave_seccionadora_media_tensao phases = 3 bus1 = 59698096827486174MT.1.2.3 bus2 = 59698241827486136MT.1.2.3 switch = F

New line.64751787_Chave_seccionadora_media_tensao phases = 3 bus1 = 59700191827495940MT.1.2.3 bus2 = 59700043827495918MT.1.2.3 switch = F

New line.64751777_Chave_seccionadora_media_tensao phases = 3 bus1 = 59701222827497197MT.1.2.3 bus2 = 59701366827497241MT.1.2.3 switch = A

New line.34651280CT_Chave_seccionadora_media_tensao phases = 3 bus1 = 59701570827496361MT.1.2.3 bus2 = 59701570827496361ET.1.2.3 switch = F

New line.64740228_Chave_seccionadora_media_tensao phases = 3 bus1 = 59702941827496796MT.1.2.3 bus2 = 59702961827496647MT.1.2.3 switch = F

New line.34657845CT_Chave_seccionadora_media_tensao phases = 3 bus1 = 59703356827489595MT.1.2.3 bus2 = 34657845CTISSO.1.2.3 switch = F

New line.34654153CT_Chave_seccionadora_media_tensao phases = 3 bus1 = 59703356827489595MT.1.2.3 bus2 = 59703356827489595ET.1.2.3 switch = F

New line.34777087CT_Chave_seccionadora_media_tensao phases = 3 bus1 = 59703359827490448MT.1.2.3 bus2 = 59703359827490448ET.1.2.3 switch = F

New line.64751779_Chave_seccionadora_media_tensao phases = 3 bus1 = 59706391827497749MT.1.2.3 bus2 = 59706246827497709MT.1.2.3 switch = F

New line.34751065CT_Chave_seccionadora_media_tensao phases = 3 bus1 = 59717044827507973MT.1.2.3 bus2 = 59717044827507973ET.1.2.3 switch = F

New line.34703388CT_Chave_seccionadora_media_tensao phases = 3 bus1 = 59719266827500348MT.1.2.3 bus2 = 59719266827500348ET.1.2.3 switch = F

New line.64706477_Chave_seccionadora_media_tensao phases = 3 bus1 = 59720261827512231MT.1.2.3 bus2 = 59720126827512166MT.1.2.3 switch = F

New line.64751789_Chave_seccionadora_media_tensao phases = 3 bus1 = 59722491827509448MT.1.2.3 bus2 = 59722400827509568MT.1.2.3 switch = F

New line.64751788_Chave_seccionadora_media_tensao phases = 3 bus1 = 59722849827524612MT.1.2.3 bus2 = 59722949827524724MT.1.2.3 switch = F

New line.34651815CT_Chave_seccionadora_media_tensao phases = 3 bus1 = 59727738827508523MT.1.2.3 bus2 = 59727738827508523ET.1.2.3 switch = F

New line.64751783_Chave_seccionadora_media_tensao phases = 3 bus1 = 59727890827527241MT.1.2.3 bus2 = 59728039827527220MT.1.2.3 switch = F

New line.64751778_Chave_seccionadora_media_tensao phases = 3 bus1 = 59729567827500575MT.1.2.3 bus2 = 59729601827500429MT.1.2.3 switch = F

New line.34629110CT_Chave_seccionadora_media_tensao phases = 3 bus1 = 59729925827494859MT.1.2.3 bus2 = 59729925827494859ET.1.2.3 switch = F

New line.34776848CT_Chave_seccionadora_media_tensao phases = 3 bus1 = 59730301827533163MT.1.2.3 bus2 = 59730301827533163ET.1.2.3 switch = F

New line.64659096_Chave_seccionadora_media_tensao phases = 3 bus1 = 59730480827496687MT.1.2.3 bus2 = 59730331827496674MT.1.2.3 switch = F

New line.34596085CT_Chave_seccionadora_media_tensao phases = 3 bus1 = 59731582827487733MT.1.2.3 bus2 = 59731582827487733ET.1.2.3 switch = F

New line.34741744CT_Chave_seccionadora_media_tensao phases = 3 bus1 = 59731663827491823MT.1.2.3 bus2 = 59731663827491823ET.1.2.3 switch = F

New line.64670655_Chave_seccionadora_media_tensao phases = 3 bus1 = 59732313827488050MT.1.2.3 bus2 = 59732175827487990MT.1.2.3 switch = F

New line.34674947CT_Chave_seccionadora_media_tensao phases = 3 bus1 = 59734623827537869MT.1.2.3 bus2 = 59734623827537869ET.1.2.3 switch = F

New line.34792559CT_Chave_seccionadora_media_tensao phases = 3 bus1 = 59735151827538412MT.1.2.3 bus2 = 59735151827538412ET.1.2.3 switch = F

New line.64751774_Chave_seccionadora_media_tensao phases = 3 bus1 = 59735238827518212MT.1.2.3 bus2 = 59735197827518356MT.1.2.3 switch = A

New line.34781158CT_Chave_seccionadora_media_tensao phases = 3 bus1 = 59736722827514801MT.1.2.3 bus2 = 59736722827514801ET.1.2.3 switch = F

New line.64751780_Chave_seccionadora_media_tensao phases = 3 bus1 = 59740044827506873MT.1.2.3 bus2 = 59739989827507012MT.1.2.3 switch = F

New line.64751772_Chave_seccionadora_media_tensao phases = 3 bus1 = 59742045827497910MT.1.2.3 bus2 = 59742136827497791MT.1.2.3 switch = A

New line.34630183CT_Chave_seccionadora_media_tensao phases = 3 bus1 = 59742062827514965MT.1.2.3 bus2 = 59742062827514965ET.1.2.3 switch = F

New line.64675825_Chave_seccionadora_media_tensao phases = 3 bus1 = 59742187827499767MT.1.2.3 bus2 = 59742318827499839MT.1.2.3 switch = F

New line.64751694_Chave_seccionadora_media_tensao phases = 3 bus1 = 59742447827497945MT.1.2.3 bus2 = 59742475827497987MT.1.2.3 switch = A

New line.64751786_Chave_seccionadora_media_tensao phases = 3 bus1 = 59742494827498243MT.1.2.3 bus2 = 59742534827498162MT.1.2.3 switch = F

New line.34705891CT_Chave_seccionadora_media_tensao phases = 3 bus1 = 59745769827505002MT.1.2.3 bus2 = 59745769827505002ET.1.2.3 switch = F

New line.34769157CT_Chave_seccionadora_media_tensao phases = 3 bus1 = 59748187827521019MT.1.2.3 bus2 = 59748187827521019ET.1.2.3 switch = F

New line.64670654_Chave_seccionadora_media_tensao phases = 3 bus1 = 59749174827521391MT.1.2.3 bus2 = 59749034827521338MT.1.2.3 switch = F

New line.34704132CT_Chave_seccionadora_media_tensao phases = 3 bus1 = 59749735827519790MT.1.2.3 bus2 = 59749735827519790ET.1.2.3 switch = F

New line.34755506CT_Chave_seccionadora_media_tensao phases = 3 bus1 = 59752471827512776MT.1.2.3 bus2 = 59752471827512776ET.1.2.3 switch = F

New line.34682101CT_Chave_seccionadora_media_tensao phases = 3 bus1 = 59752819827511918MT.1.2.3 bus2 = 59752819827511918ET.1.2.3 switch = F

New line.64698704_Chave_seccionadora_media_tensao phases = 3 bus1 = 59754027827509150MT.1.2.3 bus2 = 59753967827509287MT.1.2.3 switch = F

New line.34798802CT_Chave_seccionadora_media_tensao phases = 3 bus1 = 59755655827501175MT.1.2.3 bus2 = 59755655827501175ET.1.2.3 switch = F

New line.34804823CT_Chave_seccionadora_media_tensao phases = 3 bus1 = 59755961827506976MT.1.2.3 bus2 = 59755961827506976ET.1.2.3 switch = F

New line.34667192CT_Chave_seccionadora_media_tensao phases = 3 bus1 = 59756248827496437MT.1.2.3 bus2 = 59756248827496437ET.1.2.3 switch = F

New line.64659097_Chave_seccionadora_media_tensao phases = 3 bus1 = 59761056827501254MT.1.2.3 bus2 = 59760911827501215MT.1.2.3 switch = F

New line.34589241CT_Chave_seccionadora_media_tensao phases = 3 bus1 = 59762124827497594MT.1.2.3 bus2 = 59762124827497594ET.1.2.3 switch = F

New line.64740227_Chave_seccionadora_media_tensao phases = 3 bus1 = 59764196827509535MT.1.2.3 bus2 = 59764154827509679MT.1.2.3 switch = F

New line.34581371CT_Chave_seccionadora_media_tensao phases = 3 bus1 = 59765802827512445MT.1.2.3 bus2 = 59765802827512445ET.1.2.3 switch = F

New line.64709884_Chave_seccionadora_media_tensao phases = 3 bus1 = 59767765827510675MT.1.2.3 bus2 = 59767789827510527MT.1.2.3 switch = F

New line.34719405CT_Chave_seccionadora_media_tensao phases = 3 bus1 = 59769451827505176MT.1.2.3 bus2 = 59769451827505176ET.1.2.3 switch = F

New line.64751784_Chave_seccionadora_media_tensao phases = 3 bus1 = 59769638827516027MT.1.2.3 bus2 = 59769347827515904MT.1.2.3 switch = F

New line.64751771_Chave_seccionadora_media_tensao phases = 3 bus1 = 59769778827516435MT.1.2.3 bus2 = 59769637827516383MT.1.2.3 switch = A

New line.64751695_Chave_seccionadora_media_tensao phases = 3 bus1 = 59769788827516087MT.1.2.3 bus2 = 59769638827516027MT.1.2.3 switch = F

New line.64751785_Chave_seccionadora_media_tensao phases = 3 bus1 = 59769937827516071MT.1.2.3 bus2 = 59769788827516087MT.1.2.3 switch = F

New line.34621609CT_Chave_seccionadora_media_tensao phases = 3 bus1 = 59770391827514640MT.1.2.3 bus2 = 59770391827514640ET.1.2.3 switch = F

New line.64670653_Chave_seccionadora_media_tensao phases = 3 bus1 = 59771318827516500MT.1.2.3 bus2 = 59771251827516366MT.1.2.3 switch = F

New line.34676976CT_Chave_seccionadora_media_tensao phases = 3 bus1 = 59801075827527977MT.1.2.3 bus2 = 59801075827527977ET.1.2.3 switch = F

New line.34724002CT_Chave_seccionadora_media_tensao phases = 3 bus1 = 59806821827530244MT.1.2.3 bus2 = 59806821827530244ET.1.2.3 switch = F

New line.34719409CT_Chave_seccionadora_media_tensao phases = 3 bus1 = 59854681827548506MT.1.2.3 bus2 = 59854681827548506ET.1.2.3 switch = F

New line.64751781_Chave_seccionadora_media_tensao phases = 3 bus1 = 59872357827555249MT.1.2.3 bus2 = 59872218827555193MT.1.2.3 switch = F

New line.34760174CT_Chave_seccionadora_media_tensao phases = 3 bus1 = 59884204827574489MT.1.2.3 bus2 = 59884204827574489ET.1.2.3 switch = F

New line.34756002CT_Chave_seccionadora_media_tensao phases = 3 bus1 = 59902179827569261MT.1.2.3 bus2 = 59902179827569261ET.1.2.3 switch = F

New line.64709883_Chave_seccionadora_media_tensao phases = 3 bus1 = 59902819827568278MT.1.2.3 bus2 = 59902737827568404MT.1.2.3 switch = F

New line.1207372_Chave_seccionadora_media_tensao phases = 3 bus1 = 59904185827576240MT.1.2.3 bus2 = 0011207372.1.2.3 switch = A

New line.64751790_Chave_seccionadora_media_tensao phases = 3 bus1 = 59905479827569846MT.1.2.3 bus2 = 59905599827569756MT.1.2.3 switch = F

New Load.nome_00281f0880f43dc0e6e563d8d78da7f637b339e51cd95ba0765d07fc26707703_curva_diaria_RES-Tipo10_curva_anual_3.23_3.74_5.37_3.24_3.21_2.36_0.33_2.17_5.26_2.55_11.16_3.73_carga_baixa Bus1=59732440827502523BT.1.2.3 Phases=3
~ Conn=wye Model=1 Kv=0.22 Kw=1 pf=0.92

New Load.nome_003ef0e23e1670ef4b87bbd9d09dc8e8b8f687f6d306ad09db9898b4e5c972ea_curva_diaria_RES-Tipo5_curva_anual_2.94_2.99_4.03_2.07_1.63_2.1_0.4_1.44_3.68_2.36_5.15_5.7_carga_baixa Bus1=59753573827512655BT.1.2.3 Phases=3
~ Conn=wye Model=1 Kv=0.22 Kw=1 pf=0.92

New Load.nome_006abad3444da63826ef14ef3675d71bef4352223f7f62dc76f185905b1cdb85_curva_diaria_COM-Tipo2_curva_anual_0.0_0.0_0.0_0.0_0.0_0.0_0.0_0.0_0.0_0.0_0.0_0.0_carga_baixa Bus1=2502351IS.1.2.3 Phases=3
~ Conn=wye Model=1 Kv=0.22 Kw=1 pf=0.92

New Load.nome_006b6bf1e2e3eb43bf0575dbc308ce93cbff1e4cc64e435dc5f1390a86553ebd_curva_diaria_RES-Tipo2_curva_anual_0.0_0.0_0.0_0.0_0.0_0.0_0.0_0.0_0.0_0.0_0.0_0.0_carga_baixa Bus1=1572555IS.1.4 Phases=1
~ Conn=wye Model=1 Kv=0.127 Kw=1 pf=0.92

New Load.nome_00d8aa68399f1092cb09b56f2436473259e85f2b5056393aa3f04018092c4945_curva_diaria_RES-Tipo6_curva_anual_0.0_0.0_0.0_0.0_0.0_0.0_0.14_0.29_0.31_0.38_0.35_0.34_carga_baixa Bus1=59884474827574667BT.1.2 Phases=2
~ Conn=wye Model=1 Kv=0.22 Kw=1 pf=0.92

New Load.nome_0203a8486cc0c8e946feeaaf47642a896c700a2d5052cda00fb879b99befaf98_curva_diaria_RES-Tipo7_curva_anual_1.28_1.18_1.66_1.55_1.5_1.12_1.29_1.69_1.19_0.92_0.84_1.16_carga_baixa Bus1=59741911827514243BT.2.3 Phases=2
~ Conn=wye Model=1 Kv=0.22 Kw=1 pf=0.92

New Load.nome_020f6154c81fd3dcfac086357b64261e88cd25b28e59a6a46431a8bdef4ee0cd_curva_diaria_RES-Tipo1_curva_anual_0.39_0.47_0.54_0.42_0.43_0.38_0.38_0.34_0.35_0.44_0.38_0.32_carga_baixa Bus1=59728847827502077BT.1.2 Phases=2
~ Conn=wye Model=1 Kv=0.22 Kw=1 pf=0.92

New Load.nome_0360e7af54bc36436589a7cfe02146611493ecefcfdd3c59e093f02fdf0b0bc4_curva_diaria_COM-Tipo1_curva_anual_5.02_4.15_4.97_4.53_4.98_4.75_1.29_4.39_3.51_3.23_2.55_2.41_carga_baixa Bus1=59718436827500246BT.1.2.3 Phases=3
~ Conn=wye Model=1 Kv=0.22 Kw=1 pf=0.92

New Load.nome_043eeb5b8c6315885af8d0535d0db210f05e74711231d3dd92f6a1fa2e7627f6_curva_diaria_COM-Tipo3_curva_anual_19.83_15.43_17.78_16.81_14.36_9.99_14.92_20.86_24.02_29.34_25.33_23.19_carga_baixa Bus1=59701628827496320BT.1.2.3 Phases=3
~ Conn=wye Model=1 Kv=0.22 Kw=1 pf=0.92

New Load.nome_05355bc66a322dd8c60935d09022be01808a103f8b2a7cb42b861b5b2a69efc1_curva_diaria_RES-Tipo5_curva_anual_3.15_3.46_4.79_2.86_3.0_2.84_0.36_1.49_3.69_2.46_5.32_5.34_carga_baixa Bus1=59727942827507940BT.1.2.3 Phases=3
~ Conn=wye Model=1 Kv=0.22 Kw=1 pf=0.92

New Load.nome_05ef6413aa6fa63d347bc1f3bafd067efae692d16bcdb9fd15dc2f593ed2a159_curva_diaria_COM-Tipo1_curva_anual_1.5_1.05_1.2_0.99_1.03_0.8_1.06_1.76_1.6_1.39_0.42_0.16_carga_baixa Bus1=59858718827551246BT.1.2 Phases=2
~ Conn=wye Model=1 Kv=0.22 Kw=1 pf=0.92

New Load.nome_065f927f3b316a2cff1b49f6b792d651106f011b5c70eaf4bd0e1fdaa36d2ae6_curva_diaria_RES-Tipo2_curva_anual_0.0_0.0_0.0_0.0_0.0_0.0_0.0_0.0_0.0_0.0_0.0_0.0_carga_baixa Bus1=329546IS.1.2 Phases=2
~ Conn=wye Model=1 Kv=0.22 Kw=1 pf=0.92

New Load.nome_0691498f4aaa1e60a165f1d53bf5d1aa8ad269f7d8277d9487d1d489079667e5_curva_diaria_COM-Tipo4_curva_anual_0.37_0.29_0.46_0.67_0.77_0.57_0.69_0.7_0.5_0.79_1.43_1.41_carga_baixa Bus1=59737855827511303BT.1.2.3 Phases=3
~ Conn=wye Model=1 Kv=0.22 Kw=1 pf=0.92

New Load.nome_0725bf63cbf8cc5eb77376c0a96f95cdd4971807b972cfa61e83835e67143bda_curva_diaria_RES-Tipo7_curva_anual_0.56_0.47_0.51_0.25_0.18_0.24_0.37_0.45_0.79_0.86_0.54_0.54_carga_baixa Bus1=59895452827567972BT.1.2 Phases=2
~ Conn=wye Model=1 Kv=0.22 Kw=1 pf=0.92

New Load.nome_072a4052ae705dc47b351712c6b353fd67dc174f282b61f1a29fb57faacc2eaf_curva_diaria_RES-Tipo6_curva_anual_0.89_0.51_0.53_0.8_0.9_0.99_1.55_2.05_1.74_2.22_1.78_1.07_carga_baixa Bus1=59753433827512446BT.1.2.3 Phases=3
~ Conn=wye Model=1 Kv=0.22 Kw=1 pf=0.92

New Load.nome_073588c03560ef085b1452c67a87aefff20fd87c6a4980f73b488673a701ea00_curva_diaria_RES-Tipo1_curva_anual_1.07_0.88_1.08_0.92_0.93_0.73_0.8_0.93_1.13_1.45_1.2_1.18_carga_baixa Bus1=59837943827540587BT.1.2 Phases=2
~ Conn=wye Model=1 Kv=0.22 Kw=1 pf=0.92

New Load.nome_078003145064bcea643cdc21154aedd2b4812892cc398352b69b4e3eced4ebc0_curva_diaria_RES-Tipo10_curva_anual_0.0_0.0_0.0_0.0_0.0_0.0_0.0_0.0_0.0_0.91_1.18_1.01_carga_baixa Bus1=59881992827573750BT.1.4 Phases=1
~ Conn=wye Model=1 Kv=0.127 Kw=1 pf=0.92

New Load.nome_07cdf349c90dc4e275ff39307786e71308d28498b5094d95d59181dae6036e91_curva_diaria_COM-Tipo8_curva_anual_0.0_0.0_0.0_0.0_0.0_0.36_0.06_0.05_0.02_0.02_0.01_0.02_carga_baixa Bus1=59729986827486835BT.1.2 Phases=2
~ Conn=wye Model=1 Kv=0.22 Kw=1 pf=0.92

New Load.nome_07fdc726d13144cbfad776394b3a7382f334e650b3c9204843fb1ab45d9bc281_curva_diaria_RES-Tipo2_curva_anual_0.19_0.15_0.19_0.17_0.18_0.14_0.21_0.22_0.16_0.3_0.24_0.22_carga_baixa Bus1=59808419827531477BT.1.4 Phases=1
~ Conn=wye Model=1 Kv=0.127 Kw=1 pf=0.92

New Load.nome_088d1ea330cbb9815ff3ead10a8af908ca9532c1f078aeef4602cf9d39bc3d48_curva_diaria_RES-Tipo1_curva_anual_0.39_0.02_0.0_0.0_0.0_0.0_0.0_0.0_0.0_0.0_0.0_0.0_carga_baixa Bus1=59805928827529773BT.2.4 Phases=1
~ Conn=wye Model=1 Kv=0.127 Kw=1 pf=0.92

New Load.nome_08d3efc172fcab64bf666e15e3a4f7b506ec174e5e89d32a2bc1ef593ca34f3f_curva_diaria_RES-Tipo2_curva_anual_0.01_0.0_0.0_0.0_0.0_0.0_0.0_0.0_0.0_0.0_0.0_0.0_carga_baixa Bus1=59845656827541160BT.1.2 Phases=2
~ Conn=wye Model=1 Kv=0.22 Kw=1 pf=0.92

New Load.nome_091ab4587dae6eabcdd81ef8b2e03321d139def9f42bdcbf082c3975f34f4438_curva_diaria_COM-Tipo1_curva_anual_0.7_0.82_1.12_1.04_1.05_0.78_0.98_1.18_1.51_1.84_1.45_1.11_carga_baixa Bus1=59731948827488446BT.1.2 Phases=2
~ Conn=wye Model=1 Kv=0.22 Kw=1 pf=0.92

New Load.nome_09a6844e66a198c85239f772c1a5b3f19c9cdf004b286c5c4902d0e5c0c0e230_curva_diaria_COM-Tipo1_curva_anual_3.62_3.25_4.12_3.72_3.85_3.39_3.73_4.27_3.92_4.7_3.88_4.29_carga_baixa Bus1=59733114827511547BT.1.2.3 Phases=3
~ Conn=wye Model=1 Kv=0.22 Kw=1 pf=0.92

New Load.nome_09c42351410f9e8c3e5cb1b90af93804c94dd72595adb07a5f33e88298bdde75_curva_diaria_RES-Tipo4_curva_anual_0.11_0.14_0.19_0.16_0.16_0.14_0.16_0.29_0.28_0.29_0.24_0.15_carga_baixa Bus1=59718464827500704BT.1.2 Phases=2
~ Conn=wye Model=1 Kv=0.22 Kw=1 pf=0.92

New Load.nome_09de8f23421fb9816718b1df922d2ab48372ab5bf3c6c8417378f36501e490eb_curva_diaria_RES-Tipo8_curva_anual_0.0_0.0_0.0_0.0_0.0_0.0_0.08_0.11_0.0_0.0_0.0_0.0_carga_baixa Bus1=59731751827528810BT.1.3 Phases=2
~ Conn=wye Model=1 Kv=0.22 Kw=1 pf=0.92

New Load.nome_09fc59d1411a2da45d64d2fb711109c92490a897ef932f61a1b8b9871a883d14_curva_diaria_RES-Tipo1_curva_anual_0.0_0.0_0.0_0.0_0.0_0.0_0.28_0.79_0.41_0.0_0.0_0.0_carga_baixa Bus1=59881992827573750BT.1.4 Phases=1
~ Conn=wye Model=1 Kv=0.127 Kw=1 pf=0.92

New Load.nome_0a8baa9854f9c273f8156374b8fc00705cb9cfa3c7bb7d6874db4fba27fe5078_curva_diaria_IND-Tipo8_curva_anual_0.06_0.13_0.1_0.05_0.14_0.14_0.1_0.01_0.0_0.32_0.14_0.24_carga_baixa Bus1=59730726827486291BT.1.2 Phases=2
~ Conn=wye Model=1 Kv=0.22 Kw=1 pf=0.92

New Load.nome_0ad20220c37b8e0876bd31d6b74adb90bc8db09bb3b0e443fea666632f677d26_curva_diaria_RES-Tipo6_curva_anual_1.45_1.15_1.43_1.1_0.97_0.73_0.9_1.5_1.94_2.36_1.93_1.57_carga_baixa Bus1=59751486827512684BT.1.2.3 Phases=3
~ Conn=wye Model=1 Kv=0.22 Kw=1 pf=0.92

New Load.nome_0afb079edc355a748780a6a023c62f2ea2d21ded17eed9697a0cec96dd65afa8_curva_diaria_COM-Tipo1_curva_anual_0.68_0.62_0.84_0.81_0.57_0.48_0.68_1.21_1.78_1.46_0.97_1.22_carga_baixa Bus1=59729975827486988BT.1.2 Phases=2
~ Conn=wye Model=1 Kv=0.22 Kw=1 pf=0.92

New Load.nome_0b47e653be8410fb2b33d0b8f9724f62879bf7697f39d8f940baecc4be77b4ef_curva_diaria_RES-Tipo7_curva_anual_1.81_1.31_1.68_1.52_1.42_1.11_1.52_2.22_2.55_2.89_2.69_2.46_carga_baixa Bus1=59800294827528339BT.1.2 Phases=2
~ Conn=wye Model=1 Kv=0.22 Kw=1 pf=0.92

New Load.nome_0b873237874515e5d45204389d4ddb2cc0629f79d18c841c1ebef0ad0f49f640_curva_diaria_COM-Tipo2_curva_anual_1.76_1.44_1.85_1.77_1.67_1.3_1.82_2.68_2.85_3.36_2.89_2.66_carga_baixa Bus1=59737040827541513BT.2.3 Phases=2
~ Conn=wye Model=1 Kv=0.22 Kw=1 pf=0.92

New Load.nome_0bbc5e554dfff5b988456b8fb706dfc7091fa9f31b79376829ddcf55a5397e4b_curva_diaria_COM-Tipo1_curva_anual_3.12_2.52_3.03_2.54_2.66_2.15_2.33_3.39_3.57_4.37_4.24_3.96_carga_baixa Bus1=59885600827569254BT.1.2.3 Phases=3
~ Conn=wye Model=1 Kv=0.22 Kw=1 pf=0.92

New Load.nome_0c07dea853ae9eba254f44fc9c7465901b22811613ceffeb10b63e47ea8a02ac_curva_diaria_RES-Tipo1_curva_anual_0.72_0.58_0.75_0.66_0.82_0.8_0.86_0.46_0.62_1.03_0.83_0.44_carga_baixa Bus1=59883621827575821BT.1.2 Phases=2
~ Conn=wye Model=1 Kv=0.22 Kw=1 pf=0.92

New Load.nome_0c3b6c5584d0789980fa7517c0dcd9114c8f1a11dd41e0be513d9bb556cf186e_curva_diaria_RES-Tipo7_curva_anual_0.0_0.28_0.09_0.18_0.03_0.08_0.26_0.68_2.23_3.17_2.12_2.02_carga_baixa Bus1=59728127827509181BT.1.2.3 Phases=3
~ Conn=wye Model=1 Kv=0.22 Kw=1 pf=0.92

New Load.nome_0c9b432dcdcdf21672c351c4b1a24a51081fb7734f6c44f8a6b9f96264c768a7_curva_diaria_RES-Tipo8_curva_anual_0.56_0.43_0.46_0.24_0.54_0.36_0.48_0.55_0.92_1.83_1.61_1.12_carga_baixa Bus1=59839059827542521BT.1.2 Phases=2
~ Conn=wye Model=1 Kv=0.22 Kw=1 pf=0.92

New Load.nome_0d65d22d28f95c60b022f11d5b3f62e76ad2baed21227e67c185a4a37ed60ed6_curva_diaria_RES-Tipo1_curva_anual_1.27_1.43_1.94_1.86_1.32_0.96_1.18_1.65_1.53_2.05_1.97_1.45_carga_baixa Bus1=59727410827508702BT.1.2 Phases=2
~ Conn=wye Model=1 Kv=0.22 Kw=1 pf=0.92

New Load.nome_0de847af775019d1e568091e0251415fdf67275ae009852227778cecadea4433_curva_diaria_RES-Tipo2_curva_anual_0.0_0.0_0.0_0.0_0.0_0.0_0.0_0.0_0.0_0.0_0.0_0.0_carga_baixa Bus1=4348159IS.1.2 Phases=2
~ Conn=wye Model=1 Kv=0.22 Kw=1 pf=0.92

New Load.nome_0e9940d33a5909fb7ae4f187fe56056de5954aa7bf8d4f86250a28f73a30b4af_curva_diaria_SP-Tipo1_curva_anual_48.99_41.13_45.13_40.49_47.2_30.98_31.29_39.54_48.57_60.79_32.89_4.72_carga_baixa Bus1=59735883827513700BT.1.2.3 Phases=3
~ Conn=wye Model=1 Kv=0.22 Kw=1 pf=0.92

New Load.nome_0eda56a4c689d6eb4c8263df1b932f671ef6fd3ec713c5eacb09a9f1c1f43d0f_curva_diaria_COM-Tipo7_curva_anual_0.69_0.46_0.68_0.51_0.48_0.44_0.49_0.66_0.73_0.85_0.73_0.74_carga_baixa Bus1=59738086827510703BT.2.3 Phases=2
~ Conn=wye Model=1 Kv=0.22 Kw=1 pf=0.92

New Load.nome_0ee5c7c5802b315c0fbe3b36300164f7002517e67d65a4a34c0d0132bfd80b61_curva_diaria_COM-Tipo1_curva_anual_2.1_2.81_3.57_3.26_3.28_3.65_2.76_3.93_4.51_6.18_4.81_6.19_carga_baixa Bus1=59745377827506521BT.1.2.4 Phases=2
~ Conn=wye Model=1 Kv=0.22 Kw=1 pf=0.92

New Load.nome_0ef8589370826be257b69fd46848698f1fa3b97d8644ae6f684eb32ff23a30cd_curva_diaria_RES-Tipo1_curva_anual_0.8_0.62_0.8_0.74_0.73_0.6_0.81_1.28_1.46_1.56_1.3_1.05_carga_baixa Bus1=59732013827533292BT.1.2 Phases=2
~ Conn=wye Model=1 Kv=0.22 Kw=1 pf=0.92

New Load.nome_0f0fd72419b994ff06bb7ef4f66b9e1675f013c4ac87bf4cd8745190b17b33ba_curva_diaria_RES-Tipo2_curva_anual_0.4_0.31_0.39_0.41_0.39_0.28_0.31_0.32_0.12_0.09_0.04_0.11_carga_baixa Bus1=59794898827526944BT.1.4 Phases=1
~ Conn=wye Model=1 Kv=0.127 Kw=1 pf=0.92

New Load.nome_0f35853f2910d25ca5f4bd4e0d646568387f34a831e9fbc7d37aaec6052f78c4_curva_diaria_COM-Tipo6_curva_anual_1.03_0.99_1.05_1.01_1.23_1.21_1.52_1.85_1.77_2.87_2.21_2.01_carga_baixa Bus1=59729860827487215BT.1.2 Phases=2
~ Conn=wye Model=1 Kv=0.22 Kw=1 pf=0.92

New Load.nome_0f973d6bf3f1d28f632394bd51461ccec7b416fd58f4243473936908aa98be00_curva_diaria_RES-Tipo7_curva_anual_0.73_0.76_0.99_0.82_0.69_0.72_1.02_1.54_1.73_1.99_1.58_1.04_carga_baixa Bus1=59753573827512655BT.1.2.3 Phases=3
~ Conn=wye Model=1 Kv=0.22 Kw=1 pf=0.92

New Load.nome_0fa190d444596cdb0496313e4cd40cdb21b81bb7ef4220709a0496351cd2d17a_curva_diaria_RES-Tipo1_curva_anual_0.57_0.44_0.58_0.55_0.6_0.49_0.58_0.76_0.88_1.07_0.71_0.79_carga_baixa Bus1=59794498827527074BT.1.2.3 Phases=3
~ Conn=wye Model=1 Kv=0.22 Kw=1 pf=0.92

New Load.nome_104c1b791eee33b3845b0d866e0fd336dc70207f6f387db9067a693673e0b80e_curva_diaria_RES-Tipo3_curva_anual_0.97_0.79_0.95_0.8_0.82_0.59_0.79_1.01_1.07_1.19_1.0_1.03_carga_baixa Bus1=59845466827540291BT.1.2 Phases=2
~ Conn=wye Model=1 Kv=0.22 Kw=1 pf=0.92

New Load.nome_10c98a8f59556322e0b0602071018ca4b6368eff871d3fcb1cf94ab54ac95861_curva_diaria_RES-Tipo2_curva_anual_0.0_0.05_0.15_0.09_0.0_0.0_0.0_0.0_0.0_0.0_0.0_0.0_carga_baixa Bus1=59853956827548010BT.1.2 Phases=2
~ Conn=wye Model=1 Kv=0.22 Kw=1 pf=0.92

New Load.nome_10e0745d7af1c7ec1ab0a6360ed57707510e922746ee739e2d43c83d32a48973_curva_diaria_COM-Tipo2_curva_anual_0.0_0.0_0.0_0.0_0.0_0.0_0.0_0.0_0.0_0.0_0.0_0.0_carga_baixa Bus1=300554IS.1.2 Phases=2
~ Conn=wye Model=1 Kv=0.22 Kw=1 pf=0.92

New Load.nome_11cae158548da78f6b51cce3c71c09bdd4eba24cc69bbe38db7b4f72a43fb7a9_curva_diaria_COM-Tipo1_curva_anual_1.64_1.85_1.97_1.51_1.76_1.57_1.58_1.97_3.73_7.86_6.58_5.89_carga_baixa Bus1=59728007827502136BT.1.2 Phases=2
~ Conn=wye Model=1 Kv=0.22 Kw=1 pf=0.92

New Load.nome_1235ff4008dad944da004e21f137396b59465b6370291c32473b42537acf5c61_curva_diaria_RES-Tipo6_curva_anual_0.49_0.44_0.35_0.37_0.4_0.3_0.26_0.32_0.33_0.37_0.37_0.37_carga_baixa Bus1=59895370827568161BT.1.4 Phases=1
~ Conn=wye Model=1 Kv=0.127 Kw=1 pf=0.92

New Load.nome_12abda138e8262285e92ac31e14d9770f51922a275d79db8c7aa3caf8dc6784d_curva_diaria_RES-Tipo10_curva_anual_0.0_0.0_0.0_0.0_0.0_0.0_0.0_0.0_0.0_0.0_62.45_33.89_carga_baixa Bus1=59847903827546204BT.1.2.3 Phases=3
~ Conn=wye Model=1 Kv=0.22 Kw=1 pf=0.92

New Load.nome_12b64d7e901f1e668a417ebf9e033d857a6990051a4ac9b1b0b810d51470ada8_curva_diaria_RES-Tipo6_curva_anual_2.81_3.51_4.81_2.71_3.04_3.09_0.26_1.46_3.55_2.51_5.66_5.61_carga_baixa Bus1=59732326827492060BT.2.3 Phases=2
~ Conn=wye Model=1 Kv=0.22 Kw=1 pf=0.92

New Load.nome_12b9c32fd7b7756934e1891f91c9f3b01b769bdb94598be51ea8de816e668b00_curva_diaria_RES-Tipo6_curva_anual_0.0_0.01_0.01_0.0_0.05_0.1_0.05_0.12_0.2_0.21_0.0_0.0_carga_baixa Bus1=59845656827541160BT.1.2 Phases=2
~ Conn=wye Model=1 Kv=0.22 Kw=1 pf=0.92

New Load.nome_13577788f96eca27a1dde8cf6c1e55083a9955a6ec70c8182b5113f3d6c17b33_curva_diaria_RES-Tipo1_curva_anual_0.36_0.31_0.4_0.33_0.35_0.31_0.31_0.56_0.54_0.59_0.77_0.83_carga_baixa Bus1=59883965827571381BT.1.4 Phases=1
~ Conn=wye Model=1 Kv=0.127 Kw=1 pf=0.92

New Load.nome_135d6816c53bc4922b31ebfa0b1afddfed838f8167d13d5838de78479fcb0ebb_curva_diaria_COM-Tipo9_curva_anual_0.19_0.18_0.17_0.18_0.13_0.07_0.38_1.08_1.36_1.75_1.54_1.32_carga_baixa Bus1=59730655827486311BT.1.2 Phases=2
~ Conn=wye Model=1 Kv=0.22 Kw=1 pf=0.92

New Load.nome_13fcb5b429d85ec249a430c369305b8dc4be6b91e57bec679a225a2fa647d432_curva_diaria_RES-Tipo2_curva_anual_0.0_0.0_0.0_0.0_0.0_0.0_0.0_0.0_0.0_0.0_0.0_0.0_carga_baixa Bus1=856754IS.3.4 Phases=1
~ Conn=wye Model=1 Kv=0.127 Kw=1 pf=0.92

New Load.nome_13fdebd52d2636622db74f3bae4cd68c12dbb5747f1d00891be20d8e9aaaf9d8_curva_diaria_RES-Tipo1_curva_anual_0.82_0.67_0.84_0.66_0.6_0.56_0.75_0.96_0.96_1.56_1.95_1.61_carga_baixa Bus1=59863307827542266BT.1.2 Phases=2
~ Conn=wye Model=1 Kv=0.22 Kw=1 pf=0.92

New Load.nome_145f568daa023e9b525867f1d42adfe7c38618176cf0a9595e82b9f4959c2c60_curva_diaria_RES-Tipo1_curva_anual_0.28_0.34_0.38_0.36_0.39_0.37_0.4_0.48_0.4_0.44_0.38_0.4_carga_baixa Bus1=59730893827532966BT.1.2 Phases=2
~ Conn=wye Model=1 Kv=0.22 Kw=1 pf=0.92

New Load.nome_147338126fb3ebc45689af67a0e77c30edbae5a4f4ab7fb6c93e2a68bb5ee294_curva_diaria_RES-Tipo4_curva_anual_0.0_0.0_0.0_0.0_1.42_2.61_0.32_1.5_3.76_2.57_5.56_5.32_carga_baixa Bus1=59889594827575303BT.1.2 Phases=2
~ Conn=wye Model=1 Kv=0.22 Kw=1 pf=0.92

New Load.nome_1491eba3a276c9892d71ea18889ba1371ba5226bb929d26db61025a3f32f5474_curva_diaria_RES-Tipo8_curva_anual_0.65_0.41_0.0_0.0_0.13_0.06_0.08_0.11_0.12_0.14_0.11_0.12_carga_baixa Bus1=59731859827486359BT.1.2 Phases=2
~ Conn=wye Model=1 Kv=0.22 Kw=1 pf=0.92

New Load.nome_14f2fa2e7c0a2be1470eb5755e23dd72f6bbd8633e66f9761c24f98ba0cde6d7_curva_diaria_RES-Tipo1_curva_anual_0.9_0.93_1.17_1.14_1.0_0.68_0.89_1.24_1.53_1.99_1.7_1.43_carga_baixa Bus1=59746829827524347BT.1.3 Phases=2
~ Conn=wye Model=1 Kv=0.22 Kw=1 pf=0.92

New Load.nome_151a11e1c7fe53a8941df8961bf28b639a144916ab09ffa099c46a387d10e7d2_curva_diaria_COM-Tipo3_curva_anual_0.34_0.33_0.34_0.2_0.2_0.12_0.15_0.24_0.33_0.41_0.36_0.41_carga_baixa Bus1=59732163827487630BT.1.2 Phases=2
~ Conn=wye Model=1 Kv=0.22 Kw=1 pf=0.92

New Load.nome_1565c66015c39697ad4b4fc071eaa314e836bff3032add7b4d9c1c3caa361e8b_curva_diaria_RES-Tipo3_curva_anual_0.82_0.83_0.89_0.53_0.3_0.49_0.74_1.15_1.46_1.86_1.8_1.75_carga_baixa Bus1=59753528827512587BT.1.2.3 Phases=3
~ Conn=wye Model=1 Kv=0.22 Kw=1 pf=0.92

New Load.nome_157e6f328978ee7b5706835506ee176c5406c229f451aba25c71b28da335189d_curva_diaria_COM-Tipo1_curva_anual_0.0_0.0_0.0_0.0_0.0_0.0_0.0_0.0_0.0_0.0_0.0_0.0_carga_baixa Bus1=614667IS.1.2 Phases=2
~ Conn=wye Model=1 Kv=0.22 Kw=1 pf=0.92

New Load.nome_160e5fb3fc7f4e517f2d18ac30a7638c94401c0ddb357d7f264b496d9ff877ad_curva_diaria_COM-Tipo8_curva_anual_0.0_0.0_0.0_0.0_0.0_0.38_0.3_1.3_3.15_5.6_5.86_5.55_carga_baixa Bus1=59772052827498327BT.1.2.3 Phases=3
~ Conn=wye Model=1 Kv=0.22 Kw=1 pf=0.92

New Load.nome_162a5165a5862a35ff4f7b821a27d55b15b421aaadefb7a17d8283acdd705cde_curva_diaria_COM-Tipo1_curva_anual_2.17_1.75_2.12_1.82_1.71_1.38_1.73_2.37_2.62_3.06_2.61_2.7_carga_baixa Bus1=59753340827509237BT.1.2.3 Phases=3
~ Conn=wye Model=1 Kv=0.22 Kw=1 pf=0.92

New Load.nome_16a6b1b4934e30b8a3d5f52a956bc74b83054e09499effb260e0daa9b61015d9_curva_diaria_RES-Tipo1_curva_anual_1.32_1.11_1.3_1.22_1.29_1.03_1.14_1.56_2.15_2.99_2.45_2.39_carga_baixa Bus1=59747991827521025BT.1.2.3 Phases=3
~ Conn=wye Model=1 Kv=0.22 Kw=1 pf=0.92

New Load.nome_16b0b88d7e2377ce0a16d4e9948c043dd9f615bfe7e8d0282029aceab8e6182a_curva_diaria_COM-Tipo1_curva_anual_0.75_0.81_1.01_0.89_0.83_0.69_0.72_1.08_1.29_1.47_1.46_1.14_carga_baixa Bus1=59742277827504657BT.1.2.3 Phases=3
~ Conn=wye Model=1 Kv=0.22 Kw=1 pf=0.92

New Load.nome_17b023c6ae8b4e13572e80ac14f9431ae1f9ebf53659e7cf4e2cd61499b8144a_curva_diaria_RES-Tipo9_curva_anual_1.58_1.75_2.65_1.55_1.16_1.33_0.27_0.57_0.42_3.19_3.25_2.58_carga_baixa Bus1=59846972827541765BT.1.2 Phases=2
~ Conn=wye Model=1 Kv=0.22 Kw=1 pf=0.92

New Load.nome_17c4f985863c9cca10f48df0a55c8e3b7633d839ecb44d33a8df0290ea9e26dd_curva_diaria_RES-Tipo2_curva_anual_0.0_0.0_0.0_0.0_0.0_0.0_0.0_0.0_0.0_0.0_0.0_0.0_carga_baixa Bus1=2047101IS.1.3 Phases=2
~ Conn=wye Model=1 Kv=0.22 Kw=1 pf=0.92

New Load.nome_185fcecc3d9d921c1a894cd966f99c5407080fee43c97e653d5b128f9eab25b7_curva_diaria_RES-Tipo4_curva_anual_0.93_0.84_1.11_0.92_0.89_0.67_0.77_1.18_1.34_1.59_0.78_0.0_carga_baixa Bus1=59854588827547484BT.1.2 Phases=2
~ Conn=wye Model=1 Kv=0.22 Kw=1 pf=0.92
